Version 4
SHEET 1 2404 980
WIRE 960 16 960 -32
WIRE 1104 16 960 16
WIRE 800 48 800 -32
WIRE 1104 48 800 48
WIRE 1552 80 1520 80
WIRE 1552 144 1520 144
FLAG 960 -160 Vdd
FLAG 800 -160 Vdd
FLAG -432 -160 0
FLAG -432 -288 Vdd
FLAG -272 -160 0
FLAG -272 -288 In1?
FLAG 256 400 0
FLAG 256 272 C2?
FLAG 256 80 0
FLAG 256 -48 C1?
FLAG -432 80 0
FLAG -432 -48 CLC1
FLAG -432 384 0
FLAG -432 256 CLC2
FLAG 1104 80 In1?
FLAG 1104 112 C1?
FLAG 1104 144 C2?
FLAG 1104 176 CLC1
FLAG 1104 208 CLC2
FLAG 1312 -32 Vdd
FLAG 1312 256 0
SYMBOL cktsym\\isource 960 -96 R0
WINDOW 123 0 0 Left 2
WINDOW 39 0 0 Left 2
SYMATTR Value 1µ
SYMATTR InstName Iin
SYMBOL cktsym\\isource 800 -96 R0
WINDOW 123 0 0 Left 2
WINDOW 39 0 0 Left 2
SYMATTR Value 500n
SYMATTR InstName Iref
SYMBOL cktsym\\vsource -432 -224 R0
WINDOW 123 0 0 Left 2
WINDOW 39 0 0 Left 2
SYMATTR Value 3V
SYMATTR InstName V1
SYMBOL cktsym\\vsource -272 -224 R0
WINDOW 123 0 0 Left 2
WINDOW 39 0 0 Left 2
SYMATTR Value PWL(0 3 5.5u 3 5.52u 0 40u 0)
SYMATTR InstName V2
SYMBOL cktsym\\vsource 256 336 R0
WINDOW 123 0 0 Left 2
WINDOW 39 0 0 Left 2
SYMATTR Value PWL(0 0 6u 0 6.02u 3 14u 3 14.02u 0 40u 0)
SYMATTR InstName V3
SYMBOL cktsym\\vsource 256 16 R0
WINDOW 123 0 0 Left 2
WINDOW 39 0 0 Left 2
SYMATTR Value PWL(0 3 5u 3 5.02u 0 40u 0)
SYMATTR InstName V4
SYMBOL cktsym\\vsource -432 16 R0
WINDOW 123 0 0 Left 2
WINDOW 39 0 0 Left 2
SYMATTR Value PWL(0 3 0.5u 3 0.52u 0 40u 0)
SYMATTR InstName V5
SYMBOL cktsym\\vsource -432 320 R0
WINDOW 123 0 0 Left 2
WINDOW 39 0 0 Left 2
SYMATTR Value PWL(0 3 0.5u 3 0.52u 0 9.78u 0 9.8u 3 10.2u 3 10.22u 0 40u 0)
SYMATTR InstName V6
SYMBOL analog_switch_current_steer 1312 112 R0
SYMATTR InstName X1
TEXT -392 -464 Left 2 !.include engr3426.sub
TEXT -392 -528 Left 2 !.tran 0 40u 0 10n
