Version 4
SHEET 1 2404 980
WIRE 608 -1376 608 -1408
WIRE 608 -1376 528 -1376
WIRE 688 -1376 608 -1376
WIRE 1072 -1376 1072 -1408
WIRE 1072 -1376 992 -1376
WIRE 1152 -1376 1072 -1376
WIRE 528 -1360 528 -1376
WIRE 688 -1360 688 -1376
WIRE 992 -1360 992 -1376
WIRE 1152 -1360 1152 -1376
WIRE 528 -1216 528 -1232
WIRE 608 -1216 528 -1216
WIRE 688 -1216 688 -1232
WIRE 688 -1216 608 -1216
WIRE 720 -1216 688 -1216
WIRE 992 -1216 992 -1232
WIRE 1072 -1216 992 -1216
WIRE 1152 -1216 1152 -1232
WIRE 1152 -1216 1072 -1216
WIRE 1184 -1216 1152 -1216
WIRE 608 -1200 608 -1216
WIRE 1072 -1200 1072 -1216
WIRE 608 -1056 608 -1072
WIRE 1072 -1056 1072 -1072
WIRE 608 -800 608 -832
WIRE 608 -800 528 -800
WIRE 688 -800 608 -800
WIRE 1008 -800 1008 -832
WIRE 1008 -800 928 -800
WIRE 1088 -800 1008 -800
WIRE 1408 -800 1408 -832
WIRE 1408 -800 1328 -800
WIRE 1488 -800 1408 -800
WIRE 1808 -800 1808 -832
WIRE 1808 -800 1728 -800
WIRE 1888 -800 1808 -800
WIRE 528 -784 528 -800
WIRE 688 -784 688 -800
WIRE 928 -784 928 -800
WIRE 1088 -784 1088 -800
WIRE 1328 -784 1328 -800
WIRE 1488 -784 1488 -800
WIRE 1728 -784 1728 -800
WIRE 1888 -784 1888 -800
WIRE 192 -656 160 -656
WIRE 528 -640 528 -656
WIRE 608 -640 528 -640
WIRE 688 -640 688 -656
WIRE 688 -640 608 -640
WIRE 720 -640 688 -640
WIRE 928 -640 928 -656
WIRE 1008 -640 928 -640
WIRE 1088 -640 1088 -656
WIRE 1088 -640 1008 -640
WIRE 1120 -640 1088 -640
WIRE 1328 -640 1328 -656
WIRE 1408 -640 1328 -640
WIRE 1488 -640 1488 -656
WIRE 1488 -640 1408 -640
WIRE 1520 -640 1488 -640
WIRE 1728 -640 1728 -656
WIRE 1808 -640 1728 -640
WIRE 1888 -640 1888 -656
WIRE 1888 -640 1808 -640
WIRE 1920 -640 1888 -640
WIRE 608 -624 608 -640
WIRE 1008 -624 1008 -640
WIRE 1408 -624 1408 -640
WIRE 1808 -624 1808 -640
WIRE 160 -576 160 -656
WIRE 160 -576 128 -576
WIRE 256 -576 256 -592
WIRE 336 -576 256 -576
WIRE 256 -560 256 -576
WIRE 160 -496 160 -576
WIRE 192 -496 160 -496
WIRE 608 -480 608 -496
WIRE 1008 -480 1008 -496
WIRE 1408 -480 1408 -496
WIRE 1808 -480 1808 -496
WIRE 608 112 608 -64
WIRE 608 112 432 112
WIRE 784 112 608 112
WIRE 1152 112 1152 -64
WIRE 1152 112 976 112
WIRE 1328 112 1152 112
WIRE 432 160 432 112
WIRE 608 160 608 112
WIRE 784 160 784 112
WIRE 976 160 976 112
WIRE 1152 160 1152 112
WIRE 1328 160 1328 112
WIRE 432 320 432 288
WIRE 720 320 432 320
WIRE 976 320 976 288
WIRE 976 320 720 320
WIRE 608 352 608 288
WIRE 864 352 608 352
WIRE 1152 352 1152 288
WIRE 1152 352 864 352
WIRE 784 384 784 288
WIRE 1248 384 784 384
WIRE 1328 384 1328 288
WIRE 1328 384 1248 384
WIRE 720 400 720 320
WIRE 720 400 576 400
WIRE 864 400 864 352
WIRE 976 400 864 400
WIRE 720 432 720 400
WIRE 864 432 864 400
WIRE 720 528 720 496
WIRE 864 528 864 496
WIRE 1248 528 1248 384
FLAG 608 -192 Vdd
FLAG 1152 -192 Vdd
FLAG 432 224 Vdd
FLAG 608 224 Vdd
FLAG 976 224 Vdd
FLAG 1152 224 Vdd
FLAG 1328 224 Vdd
FLAG 1248 528 0
FLAG 864 528 0
FLAG 720 528 0
FLAG 368 224 DC11
FLAG 912 224 DC12
FLAG 544 224 DC21
FLAG 1088 224 DC22
FLAG 1264 224 DGD2
FLAG 128 -576 In1?
FLAG 256 -720 Vdd
FLAG 256 -656 Vdd
FLAG 256 -432 0
FLAG 256 -496 0
FLAG -432 -160 0
FLAG -432 -288 Vdd
FLAG -272 -160 0
FLAG -272 -288 In1?
FLAG -432 96 0
FLAG -432 -32 C2?
FLAG -432 336 0
FLAG -432 208 C1?
FLAG 336 -576 In2?
FLAG 576 528 0
FLAG 976 528 0
FLAG 576 464 0
FLAG 976 464 0
FLAG 512 464 CLC1
FLAG 1040 464 CLC2
FLAG 1552 -48 0
FLAG 1552 -176 CLC1
FLAG 1552 256 0
FLAG 1552 128 CLC2
FLAG 784 224 Vdd
FLAG 720 224 DGD1
FLAG 720 -640 DC11
FLAG 608 -832 Vdd
FLAG 608 -352 0
FLAG 608 -416 0
FLAG 608 -560 0
FLAG 464 -720 In1?
FLAG 528 -720 Vdd
FLAG 688 -720 Vdd
FLAG 752 -720 C1?
FLAG 544 -560 In1?
FLAG 544 -416 C1?
FLAG 1120 -640 DC21
FLAG 1008 -832 Vdd
FLAG 1008 -352 0
FLAG 1008 -416 0
FLAG 1008 -560 0
FLAG 864 -720 In1?
FLAG 928 -720 Vdd
FLAG 1088 -720 Vdd
FLAG 1152 -720 C2?
FLAG 944 -560 In1?
FLAG 944 -416 C2?
FLAG 1520 -640 DC12
FLAG 1408 -832 Vdd
FLAG 1408 -352 0
FLAG 1408 -416 0
FLAG 1408 -560 0
FLAG 1264 -720 In2?
FLAG 1328 -720 Vdd
FLAG 1488 -720 Vdd
FLAG 1552 -720 C1?
FLAG 1344 -560 In2?
FLAG 1344 -416 C1?
FLAG 1920 -640 DC22
FLAG 1808 -832 Vdd
FLAG 1808 -352 0
FLAG 1808 -416 0
FLAG 1808 -560 0
FLAG 1664 -720 In2?
FLAG 1728 -720 Vdd
FLAG 1888 -720 Vdd
FLAG 1952 -720 C2?
FLAG 1744 -560 In2?
FLAG 1744 -416 C2?
FLAG 720 -1216 DGD1
FLAG 608 -1408 Vdd
FLAG 608 -928 0
FLAG 608 -992 0
FLAG 608 -1136 0
FLAG 464 -1296 DC11
FLAG 528 -1296 Vdd
FLAG 688 -1296 Vdd
FLAG 752 -1296 DC21
FLAG 544 -1136 DC11
FLAG 544 -992 DC21
FLAG 1184 -1216 DGD2
FLAG 1072 -1408 Vdd
FLAG 1072 -928 0
FLAG 1072 -992 0
FLAG 1072 -1136 0
FLAG 928 -1296 DC12
FLAG 992 -1296 Vdd
FLAG 1152 -1296 Vdd
FLAG 1216 -1296 DC22
FLAG 1008 -1136 DC12
FLAG 1008 -992 DC22
SYMBOL cktsym\\isource 608 -128 R0
WINDOW 123 0 0 Left 2
WINDOW 39 0 0 Left 2
SYMATTR Value 1µ
SYMATTR InstName Iin
SYMBOL cktsym\\isource 1152 -128 R0
WINDOW 123 0 0 Left 2
WINDOW 39 0 0 Left 2
SYMATTR Value 500n
SYMATTR InstName Iref
SYMBOL cktsym\\pmos4 432 224 R0
SYMATTR InstName M1
SYMATTR Value2 l={6*A} w={2*A}
SYMBOL cktsym\\pmos4 608 224 R0
SYMATTR InstName M2
SYMATTR Value2 l={6*A} w={2*A}
SYMBOL cktsym\\pmos4 976 224 R0
SYMATTR InstName M4
SYMATTR Value2 l={6*A} w={2*A}
SYMBOL cktsym\\pmos4 1152 224 R0
SYMATTR InstName M5
SYMATTR Value2 l={6*A} w={2*A}
SYMBOL cktsym\\pmos4 1328 224 R0
SYMATTR InstName M6
SYMATTR Value2 l={6*A} w={2*A}
SYMBOL cap 704 432 R0
SYMATTR InstName C1
SYMATTR Value 10p
SYMBOL cap 848 432 R0
SYMATTR InstName C2
SYMATTR Value 10p
SYMBOL cktsym\\pmos4 256 -656 R0
SYMATTR InstName M9
SYMATTR Value2 l={6*A} w={2*A}
SYMBOL cktsym\\nmos4 256 -496 R0
SYMATTR InstName M10
SYMATTR Value2 l={3*A} w={2*A}
SYMBOL cktsym\\vsource -432 -224 R0
WINDOW 123 0 0 Left 2
WINDOW 39 0 0 Left 2
SYMATTR Value 3V
SYMATTR InstName V1
SYMBOL cktsym\\vsource -272 -224 R0
WINDOW 123 0 0 Left 2
WINDOW 39 0 0 Left 2
SYMATTR Value PWL(0 3 5.5u 3 5.52u 0 40u 0)
SYMATTR InstName V2
SYMBOL cktsym\\vsource -432 32 R0
WINDOW 123 0 0 Left 2
WINDOW 39 0 0 Left 2
SYMATTR Value PWL(0 0 6u 0 6.02u 3 14u 3 14.02u 0 40u 0)
SYMATTR InstName V3
SYMBOL cktsym\\vsource -432 272 R0
WINDOW 123 0 0 Left 2
WINDOW 39 0 0 Left 2
SYMATTR Value PWL(0 3 5u 3 5.02u 0 40u 0)
SYMATTR InstName V4
SYMBOL cktsym\\nmos4 576 464 R0
SYMATTR InstName M24
SYMATTR Value2 l={3*A} w={12*A}
SYMBOL cktsym\\nmos4 976 464 R180
SYMATTR InstName M28
SYMATTR Value2 l={3*A} w={12*A}
SYMBOL cktsym\\vsource 1552 -112 R0
WINDOW 123 0 0 Left 2
WINDOW 39 0 0 Left 2
SYMATTR Value PWL(0 3 0.5u 3 0.52u 0 40u 0)
SYMATTR InstName V5
SYMBOL cktsym\\vsource 1552 192 R0
WINDOW 123 0 0 Left 2
WINDOW 39 0 0 Left 2
SYMATTR Value PWL(0 3 0.5u 3 0.52u 0 9.78u 0 9.8u 3 10.2u 3 10.22u 0 40u 0)
SYMATTR InstName V6
SYMBOL cktsym\\pmos4 784 224 R0
SYMATTR InstName M3
SYMATTR Value2 l={6*A} w={2*A}
SYMBOL cktsym\\nmos4 608 -560 R0
SYMATTR InstName M11
SYMATTR Value2 l={3*A} w={2*A}
SYMBOL cktsym\\nmos4 608 -416 R0
SYMATTR InstName M12
SYMATTR Value2 l={3*A} w={2*A}
SYMBOL cktsym\\pmos4 528 -720 R0
SYMATTR InstName M13
SYMATTR Value2 l={6*A} w={2*A}
SYMBOL cktsym\\pmos4 688 -720 R180
SYMATTR InstName M14
SYMATTR Value2 l={6*A} w={2*A}
SYMBOL cktsym\\nmos4 1008 -560 R0
SYMATTR InstName M7
SYMATTR Value2 l={3*A} w={2*A}
SYMBOL cktsym\\nmos4 1008 -416 R0
SYMATTR InstName M8
SYMATTR Value2 l={3*A} w={2*A}
SYMBOL cktsym\\pmos4 928 -720 R0
SYMATTR InstName M15
SYMATTR Value2 l={6*A} w={2*A}
SYMBOL cktsym\\pmos4 1088 -720 R180
SYMATTR InstName M17
SYMATTR Value2 l={6*A} w={2*A}
SYMBOL cktsym\\nmos4 1408 -560 R0
SYMATTR InstName M16
SYMATTR Value2 l={3*A} w={2*A}
SYMBOL cktsym\\nmos4 1408 -416 R0
SYMATTR InstName M18
SYMATTR Value2 l={3*A} w={2*A}
SYMBOL cktsym\\pmos4 1328 -720 R0
SYMATTR InstName M19
SYMATTR Value2 l={6*A} w={2*A}
SYMBOL cktsym\\pmos4 1488 -720 R180
SYMATTR InstName M20
SYMATTR Value2 l={6*A} w={2*A}
SYMBOL cktsym\\nmos4 1808 -560 R0
SYMATTR InstName M21
SYMATTR Value2 l={3*A} w={2*A}
SYMBOL cktsym\\nmos4 1808 -416 R0
SYMATTR InstName M22
SYMATTR Value2 l={3*A} w={2*A}
SYMBOL cktsym\\pmos4 1728 -720 R0
SYMATTR InstName M23
SYMATTR Value2 l={6*A} w={2*A}
SYMBOL cktsym\\pmos4 1888 -720 R180
SYMATTR InstName M25
SYMATTR Value2 l={6*A} w={2*A}
SYMBOL cktsym\\nmos4 608 -1136 R0
SYMATTR InstName M26
SYMATTR Value2 l={3*A} w={2*A}
SYMBOL cktsym\\nmos4 608 -992 R0
SYMATTR InstName M27
SYMATTR Value2 l={3*A} w={2*A}
SYMBOL cktsym\\pmos4 528 -1296 R0
SYMATTR InstName M29
SYMATTR Value2 l={6*A} w={2*A}
SYMBOL cktsym\\pmos4 688 -1296 R180
SYMATTR InstName M30
SYMATTR Value2 l={6*A} w={2*A}
SYMBOL cktsym\\nmos4 1072 -1136 R0
SYMATTR InstName M31
SYMATTR Value2 l={3*A} w={2*A}
SYMBOL cktsym\\nmos4 1072 -992 R0
SYMATTR InstName M32
SYMATTR Value2 l={3*A} w={2*A}
SYMBOL cktsym\\pmos4 992 -1296 R0
SYMATTR InstName M33
SYMATTR Value2 l={6*A} w={2*A}
SYMBOL cktsym\\pmos4 1152 -1296 R180
SYMATTR InstName M34
SYMATTR Value2 l={6*A} w={2*A}
TEXT -400 -576 Left 2 !.include engr3426.sub
TEXT -400 -536 Left 2 !.param A=0.2u
TEXT -466 488 Left 2 !.tran 0 40u 0 10n
