Version 4
SHEET 1 880 680
FLAG 176 96 Vdd
FLAG 208 224 0
FLAG -64 32 Vdd
FLAG -64 160 0
FLAG 288 144 Vp
FLAG 288 176 Vm
FLAG -64 192 Casc
FLAG 144 224 Casc
FLAG -64 320 0
FLAG 400 32 Thresh
FLAG 80 176 Thresh
FLAG 400 160 0
FLAG 80 128 Vin
FLAG 400 192 Vin
FLAG 400 320 0
FLAG -176 32 Bias
FLAG -176 160 0
FLAG 160 224 Bias
SYMBOL comparator_preamp 160 160 R0
SYMATTR InstName X1
SYMBOL cktsym\\vsource -64 96 R0
WINDOW 123 0 0 Left 2
WINDOW 39 0 0 Left 2
SYMATTR Value 5
SYMATTR InstName V1
SYMBOL cktsym\\vsource -64 256 R0
WINDOW 123 0 0 Left 2
WINDOW 39 0 0 Left 2
SYMATTR Value 4
SYMATTR InstName V2
SYMBOL cktsym\\vsource 400 96 R0
WINDOW 123 0 0 Left 2
WINDOW 39 0 0 Left 2
SYMATTR Value 2.5
SYMATTR InstName V3
SYMBOL cktsym\\vsource 400 256 R0
WINDOW 123 0 0 Left 2
WINDOW 39 0 0 Left 2
SYMATTR Value 1
SYMATTR InstName V4
SYMBOL cktsym\\vsource -176 96 R0
WINDOW 123 0 0 Left 2
WINDOW 39 0 0 Left 2
SYMATTR Value 4
SYMATTR InstName V5
TEXT 120 16 Left 2 !.include engr3426.sub
TEXT 88 280 Left 2 !.tran 0 6u 0 1n
TEXT 120 -8 Left 2 !.step V2 3.6 4.4 .1
