Version 4
SHEET 1 880 680
WIRE 320 112 256 112
WIRE 320 144 272 144
WIRE 256 160 256 112
WIRE 272 192 272 144
WIRE 272 192 256 192
WIRE -96 208 -96 144
WIRE -80 208 -96 208
WIRE -32 208 -80 208
WIRE 320 208 272 208
WIRE -256 288 -256 144
WIRE -32 288 -32 240
WIRE -32 288 -256 288
WIRE -32 304 -32 288
WIRE 320 304 320 240
WIRE 320 304 -32 304
WIRE -80 336 -80 208
WIRE 272 336 272 208
WIRE 272 336 -80 336
FLAG -160 96 Vdd
FLAG 112 64 Vdd
FLAG 416 64 Vdd
FLAG 512 64 VddD
FLAG -160 256 0
FLAG 112 288 0
FLAG 464 288 0
FLAG -32 112 Input
FLAG -32 144 Thresh
FLAG -256 144 Bias
FLAG 608 176 Out
FLAG 320 176 Disable
SYMBOL doubleComparatorPreampLVS 112 176 R0
SYMATTR InstName X1
SYMBOL comparator_gainlatch_LDS 464 176 R0
SYMATTR InstName X3
SYMBOL doublebiasLVS -176 176 R0
SYMATTR InstName X2
