Version 4
SHEET 1 880 680
WIRE 208 176 208 160
WIRE 560 272 560 256
WIRE 208 304 96 304
WIRE 304 304 208 304
WIRE 96 320 96 304
WIRE 304 320 304 304
WIRE 32 464 -16 464
WIRE 96 464 96 448
WIRE 96 464 32 464
WIRE 304 464 304 448
WIRE 384 464 304 464
WIRE 448 464 384 464
WIRE 384 480 384 464
FLAG 96 384 pos
FLAG 304 384 pos
FLAG 208 240 pos
FLAG 208 96 pos
FLAG 208 32 pos
FLAG 32 384 Input
FLAG 368 384 Thresh
FLAG 144 240 Cascode
FLAG 144 96 Bias
FLAG 448 464 Vp
FLAG -16 464 Vm
FLAG 384 544 neg
FLAG 304 544 neg
FLAG 96 544 neg
FLAG 32 528 neg
FLAG -32 176 0
FLAG -32 336 0
FLAG 320 160 0
FLAG -32 208 Cascode
FLAG 320 32 Bias
FLAG 528 176 0
FLAG 432 320 0
FLAG 528 48 Input
FLAG -32 48 pos
FLAG -368 416 pos
FLAG -368 544 0
FLAG 432 192 Thresh
FLAG 560 272 0
FLAG 560 256 neg
SYMBOL cktsym\\pmos4 208 96 R0
SYMATTR InstName M1
SYMATTR Value2 l=4u w=16u
SYMBOL cktsym\\pmos4 208 240 R0
SYMATTR InstName M2
SYMATTR Value2 l=.8u w=3.2u
SYMBOL cktsym\\pmos4 96 384 R0
SYMATTR InstName M3
SYMATTR Value2 l=1u w=3u
SYMBOL cktsym\\pmos4 304 384 M0
SYMATTR InstName M4
SYMATTR Value2 l=1u w=3u
SYMBOL res 80 448 R0
SYMATTR InstName R1
SYMATTR Value 300k
SYMBOL res 288 448 R0
SYMATTR InstName R2
SYMATTR Value 300k
SYMBOL cap 368 480 R0
SYMATTR InstName C2
SYMATTR Value 200f
SYMBOL cap 16 464 R0
SYMATTR InstName C1
SYMATTR Value 200f
SYMBOL cktsym\\vsource -32 112 R0
WINDOW 123 0 0 Left 2
WINDOW 39 0 0 Left 2
SYMATTR Value 3
SYMATTR InstName V1
SYMBOL cktsym\\vsource 320 96 R0
WINDOW 123 0 0 Left 2
WINDOW 39 0 0 Left 2
SYMATTR Value 1.5
SYMATTR InstName V2
SYMBOL cktsym\\vsource -32 272 R0
WINDOW 123 0 0 Left 2
WINDOW 39 0 0 Left 2
SYMATTR Value 1.5
SYMATTR InstName V3
SYMBOL cktsym\\vsource 528 112 R0
WINDOW 123 0 0 Left 2
WINDOW 39 0 0 Left 2
SYMATTR Value PULSE(1.5 2 1u 10u 10u 1u 21u 100)
SYMATTR InstName V5
SYMBOL cktsym\\vsource 432 256 R0
WINDOW 123 0 0 Left 2
WINDOW 39 0 0 Left 2
SYMATTR Value 1.75
SYMATTR InstName V6
SYMBOL cktsym\\isource -368 480 R0
WINDOW 123 0 0 Left 2
WINDOW 39 0 0 Left 2
SYMATTR Value 10µ
SYMATTR InstName I1
TEXT -64 608 Left 2 !.tran 0 .3m 0 10n
TEXT 24 32 Left 2 !.include engr3426.sub
TEXT -264 168 Left 2 !.step V3 1 2.4 .2
