Version 4
SHEET 1 1360 680
WIRE 320 112 256 112
WIRE 320 144 272 144
WIRE 256 160 256 112
WIRE 320 176 304 176
WIRE 688 176 608 176
WIRE 848 176 816 176
WIRE 1072 176 976 176
WIRE 272 192 272 144
WIRE 272 192 256 192
WIRE -96 208 -96 144
WIRE -80 208 -96 208
WIRE -32 208 -80 208
WIRE 320 208 272 208
WIRE 1072 208 976 208
WIRE 1072 240 1040 240
WIRE -256 288 -256 144
WIRE -32 288 -32 240
WIRE -32 288 -256 288
WIRE 976 288 976 208
WIRE 976 288 752 288
WIRE -32 304 -32 288
WIRE 320 304 320 240
WIRE 320 304 -32 304
WIRE -80 336 -80 208
WIRE 272 336 272 208
WIRE 272 336 -80 336
WIRE 752 448 752 288
WIRE 1040 448 1040 240
WIRE 1040 448 880 448
WIRE -64 512 -96 512
WIRE 112 512 64 512
WIRE 304 528 304 176
WIRE 304 528 272 528
WIRE 112 608 112 544
WIRE 1296 608 1296 272
WIRE 1296 608 112 608
WIRE -64 624 -64 512
WIRE 752 624 752 448
WIRE 752 624 -64 624
FLAG -32 112 Input
FLAG -32 144 Thresh
FLAG -256 144 Bias
FLAG -160 96 posA
FLAG 112 64 posA
FLAG 416 64 posA
FLAG 512 64 posD
FLAG 752 128 posD
FLAG -160 256 neg
FLAG 112 288 neg
FLAG 464 288 neg
FLAG 752 224 neg
FLAG 912 128 posD
FLAG 912 224 neg
FLAG 1184 144 posD
FLAG 1184 368 neg
FLAG 816 400 posD
FLAG 816 496 neg
FLAG 0 560 neg
FLAG -96 512 Disable
FLAG 0 464 posD
FLAG 192 480 posD
FLAG 192 576 neg
FLAG 1296 240 Out
FLAG 1072 304 Vpw1
FLAG 1072 336 Vpw2
SYMBOL doubleComparatorPreampLVS 112 176 R0
SYMATTR InstName X1
SYMBOL comparator_gainlatch_LDS 464 176 R0
SYMATTR InstName X3
SYMBOL doublebiasLVS -176 176 R0
SYMATTR InstName X2
SYMBOL Inverter 752 176 R0
SYMATTR InstName X4
SYMBOL Inverter 912 176 R0
SYMATTR InstName X5
SYMBOL PulseWidthControl_LDS 1184 256 R0
SYMATTR InstName X6
SYMBOL Inverter 816 448 R0
SYMATTR InstName X7
SYMBOL Inverter 0 512 R0
SYMATTR InstName X8
SYMBOL nandLVS 192 528 R0
SYMATTR InstName X9
