Version 4
SHEET 1 880 772
WIRE -224 128 -288 128
WIRE -288 160 -288 128
WIRE -224 192 -224 128
WIRE -176 192 -176 160
WIRE -160 192 -160 160
WIRE 64 208 64 192
WIRE 224 208 224 192
WIRE -304 224 -416 224
WIRE -1104 240 -1104 160
WIRE -928 240 -928 160
WIRE -832 240 -832 160
WIRE -304 256 -416 256
WIRE 0 256 -80 256
WIRE 160 256 128 256
WIRE 368 256 288 256
WIRE 368 272 368 256
WIRE 432 272 368 272
WIRE 432 304 336 304
WIRE -496 320 -496 304
WIRE 64 336 64 304
WIRE 224 336 224 304
WIRE 336 336 336 304
WIRE 768 336 656 336
WIRE -176 352 -176 320
WIRE -1104 368 -1104 320
WIRE -928 368 -928 320
WIRE -832 368 -832 320
WIRE 768 368 656 368
WIRE 544 496 544 464
WIRE -1104 560 -1104 480
WIRE -256 624 -256 544
WIRE -112 624 -112 544
WIRE -1104 688 -1104 640
WIRE -256 752 -256 704
WIRE -112 752 -112 704
FLAG -560 304 Casc
FLAG -544 304 Bias
FLAG -304 320 Bias
FLAG -304 288 Casc
FLAG -176 352 0
FLAG -176 160 Vdd
FLAG -496 320 0
FLAG -528 176 Vdd
FLAG -288 160 0
FLAG -832 368 0
FLAG -832 160 Vin
FLAG -928 368 0
FLAG -928 160 Vth
FLAG -624 256 Vth
FLAG -624 208 Vin
FLAG -1104 368 0
FLAG -1104 160 Vdd
FLAG -1104 688 0
FLAG -1104 480 VddD
FLAG -160 160 VddD
FLAG 544 496 0
FLAG 544 240 VddD
FLAG 336 336 0
FLAG 432 336 VddD
FLAG -256 752 0
FLAG -256 544 Vpw1
FLAG -112 752 0
FLAG -112 544 Vpw2
FLAG 432 432 Vpw2
FLAG 432 400 Vpw1
FLAG 64 336 0
FLAG 224 336 0
FLAG 64 192 VddD
FLAG 224 192 VddD
SYMBOL comparator_preamp_AmySym -544 240 R0
SYMATTR InstName X1
SYMBOL comparator_gainlatch_AmySym -208 256 R0
SYMATTR InstName X2
SYMBOL voltage -832 224 R0
WINDOW 123 0 0 Left 2
WINDOW 39 0 0 Left 2
SYMATTR InstName V1
SYMATTR Value PULSE(1.2 1.6 1n 2u 2u 1n 4u 1)
SYMBOL voltage -928 224 R0
WINDOW 123 0 0 Left 2
WINDOW 39 0 0 Left 2
SYMATTR InstName V2
SYMATTR Value 1.5
SYMBOL voltage -1104 224 R0
WINDOW 123 0 0 Left 2
WINDOW 39 0 0 Left 2
SYMATTR InstName V3
SYMATTR Value 3
SYMBOL voltage -1104 544 R0
WINDOW 123 0 0 Left 2
WINDOW 39 0 0 Left 2
SYMATTR InstName V4
SYMATTR Value 1.2
SYMBOL pulse_width_control 544 352 R0
SYMATTR InstName X3
SYMATTR SpiceLine A=0.3u
SYMBOL voltage -256 608 R0
WINDOW 123 0 0 Left 2
WINDOW 39 0 0 Left 2
SYMATTR InstName V5
SYMATTR Value 0.7
SYMBOL voltage -112 608 R0
WINDOW 123 0 0 Left 2
WINDOW 39 0 0 Left 2
SYMATTR InstName V6
SYMATTR Value 0.6
SYMBOL Inverter 64 256 R0
SYMATTR InstName X4
SYMBOL Inverter 224 256 R0
SYMATTR InstName X5
TEXT 112 80 Left 2 !.include engr3426.sub
TEXT -1138 712 Left 2 !.tran 20u
