Version 4
SHEET 1 1636 1340
WIRE 528 784 368 784
WIRE 944 800 944 784
WIRE 1104 800 1104 784
WIRE 528 816 368 816
WIRE 528 848 400 848
WIRE 880 848 816 848
WIRE 1040 848 1008 848
WIRE 1296 848 1168 848
WIRE 1296 880 1168 880
WIRE 1296 912 1200 912
WIRE 1552 912 1520 912
WIRE 944 928 944 896
WIRE 1104 928 1104 896
WIRE 1552 944 1520 944
WIRE 400 1008 400 848
WIRE 400 1008 272 1008
WIRE 848 1008 400 1008
WIRE 1168 1008 1168 880
WIRE 1168 1008 848 1008
WIRE 1408 1072 1408 1040
WIRE 944 1120 944 1104
WIRE 848 1168 848 1008
WIRE 880 1168 848 1168
WIRE 1200 1168 1200 912
WIRE 1200 1168 1008 1168
WIRE 944 1248 944 1216
FLAG 80 832 Cascode
FLAG 80 864 Bias
FLAG 528 912 Bias
FLAG 528 880 Cascode
FLAG 624 736 posA
FLAG 224 688 posA
FLAG 80 768 Vth
FLAG 80 736 Vin
FLAG 720 736 posD
FLAG 1408 816 posD
FLAG 1296 1008 Vpw2
FLAG 1296 976 Vpw1
FLAG 944 784 posD
FLAG 1104 784 posD
FLAG 1552 912 Out
FLAG 1552 944 Outb
FLAG 272 1008 Disable
FLAG 944 1104 posD
FLAG 224 912 neg
FLAG 672 960 neg
FLAG 944 928 neg
FLAG 1104 928 neg
FLAG 1408 1072 neg
FLAG 944 1248 neg
SYMBOL pulse_width_control 1408 928 R0
SYMATTR InstName X1
SYMATTR SpiceLine A=0.3u
SYMBOL Inverter 944 848 R0
SYMATTR InstName X2
SYMATTR SpiceLine nmosL=0.9u nmosW=3u pmosL=0.9u pmosW=6u
SYMBOL Inverter 1104 848 R0
SYMATTR InstName X3
SYMATTR SpiceLine nmosL=0.9u nmosW=3u pmosL=0.9u pmosW=6u
SYMBOL comparator_preamp 224 800 R0
SYMATTR InstName X4
SYMBOL comparator_gainlatch 672 848 R0
SYMATTR InstName X5
SYMBOL Inverter 944 1168 R0
SYMATTR InstName X6
SYMATTR SpiceLine nmosL=0.9u nmosW=3u pmosL=0.9u pmosW=6u
