Version 4
SHEET 1 880 832
WIRE -800 -592 -800 -672
WIRE -688 -592 -688 -672
WIRE -576 -592 -576 -672
WIRE -464 -592 -464 -672
WIRE -800 -464 -800 -512
WIRE -688 -464 -688 -512
WIRE -576 -464 -576 -512
WIRE -464 -464 -464 -512
WIRE -800 -272 -800 -352
WIRE -400 -272 -400 -352
WIRE -800 -144 -800 -192
WIRE -400 -144 -400 -192
WIRE -560 160 -672 160
WIRE -144 176 -144 160
WIRE 16 176 16 160
WIRE -560 192 -672 192
WIRE -560 224 -640 224
WIRE -208 224 -272 224
WIRE -48 224 -80 224
WIRE 208 224 80 224
WIRE 208 256 112 256
WIRE 544 288 432 288
WIRE -144 304 -144 272
WIRE 16 304 16 272
WIRE 112 304 112 256
WIRE 544 320 432 320
WIRE -640 336 -640 224
WIRE 320 448 320 416
FLAG -960 208 Casc
FLAG -960 240 Bias
FLAG -560 288 Bias
FLAG -560 256 Casc
FLAG -416 336 0
FLAG -464 112 Vdd
FLAG -816 288 0
FLAG -816 64 Vdd
FLAG -640 336 0
FLAG -800 -144 0
FLAG -800 -352 Vin
FLAG -400 -144 0
FLAG -400 -352 Vth
FLAG -960 144 Vth
FLAG -960 112 Vin
FLAG -800 -464 0
FLAG -800 -672 Vdd
FLAG -688 -464 0
FLAG -688 -672 VddD
FLAG -368 112 VddD
FLAG 320 448 0
FLAG 320 192 VddD
FLAG 112 304 0
FLAG 208 288 VddD
FLAG -576 -464 0
FLAG -576 -672 Vpw1
FLAG -464 -464 0
FLAG -464 -672 Vpw2
FLAG 208 384 Vpw2
FLAG 208 352 Vpw1
FLAG -144 304 0
FLAG 16 304 0
FLAG -144 160 VddD
FLAG 16 160 VddD
SYMBOL comparator_preamp_AmySym -816 176 R0
SYMATTR InstName X1
SYMBOL comparator_gainlatch_AmySym -416 224 R0
SYMATTR InstName X2
SYMBOL voltage -800 -288 R0
WINDOW 123 0 0 Left 2
WINDOW 39 0 0 Left 2
SYMATTR InstName V1
SYMATTR Value PULSE(1.2 1.6 1n 2u 2u 1n 4u 1)
SYMBOL voltage -400 -288 R0
WINDOW 123 0 0 Left 2
WINDOW 39 0 0 Left 2
SYMATTR InstName V2
SYMATTR Value 1.5
SYMBOL voltage -800 -608 R0
WINDOW 123 0 0 Left 2
WINDOW 39 0 0 Left 2
SYMATTR InstName V3
SYMATTR Value 3
SYMBOL voltage -688 -608 R0
WINDOW 123 0 0 Left 2
WINDOW 39 0 0 Left 2
SYMATTR InstName V4
SYMATTR Value 1.2
SYMBOL pulse_width_control 320 304 R0
SYMATTR InstName X3
SYMATTR SpiceLine A=0.3u
SYMBOL voltage -576 -608 R0
WINDOW 123 0 0 Left 2
WINDOW 39 0 0 Left 2
SYMATTR InstName V5
SYMATTR Value 0.7
SYMBOL voltage -464 -608 R0
WINDOW 123 0 0 Left 2
WINDOW 39 0 0 Left 2
SYMATTR InstName V6
SYMATTR Value 0.5
SYMBOL Inverter -144 224 R0
SYMATTR InstName X4
SYMATTR SpiceLine nmosL=0.9u nmosW=3u pmosL=0.9u pmosW=6u
SYMBOL Inverter 16 224 R0
SYMATTR InstName X5
SYMATTR SpiceLine nmosL=0.9u nmosW=3u pmosL=0.9u pmosW=6u
TEXT -256 -608 Left 2 !.include engr3426.sub
TEXT -256 -648 Left 2 !.tran 20u
