Version 4
SHEET 1 880 680
WIRE 256 160 208 160
WIRE 208 176 208 160
WIRE 560 272 560 256
WIRE 208 304 96 304
WIRE 272 304 208 304
WIRE 304 304 272 304
WIRE 96 320 96 304
WIRE 304 320 304 304
WIRE 32 464 -16 464
WIRE 96 464 96 448
WIRE 96 464 32 464
WIRE 304 464 304 448
WIRE 384 464 304 464
WIRE 448 464 384 464
WIRE 384 480 384 464
FLAG 96 384 pos
FLAG 304 384 pos
FLAG 208 240 pos
FLAG 208 96 pos
FLAG 208 32 pos
FLAG 32 384 Input
FLAG 368 384 Thresh
FLAG 144 240 Cascode
FLAG 144 96 Bias
FLAG 448 464 Vp
FLAG -16 464 Vm
FLAG 384 544 neg
FLAG 304 544 neg
FLAG 96 544 neg
FLAG 32 528 neg
FLAG -368 416 pos
FLAG -368 544 0
FLAG 560 272 0
FLAG 560 256 neg
FLAG 272 304 internal
FLAG 256 160 internal2
SYMBOL cktsym\\pmos4 208 96 R0
SYMATTR InstName M1
SYMATTR Value2 l=m1l w=m1w
SYMBOL cktsym\\pmos4 208 240 R0
SYMATTR InstName M2
SYMATTR Value2 l=.8u w=6.4u
SYMBOL cktsym\\pmos4 96 384 R0
SYMATTR InstName M3
SYMATTR Value2 l=1u w=6u
SYMBOL cktsym\\pmos4 304 384 M0
SYMATTR InstName M4
SYMATTR Value2 l=1u w=6u
SYMBOL res 80 448 R0
SYMATTR InstName R1
SYMATTR Value 500k
SYMBOL res 288 448 R0
SYMATTR InstName R2
SYMATTR Value 500k
SYMBOL cap 368 480 R0
SYMATTR InstName C2
SYMATTR Value 200f
SYMBOL cap 16 464 R0
SYMATTR InstName C1
SYMATTR Value 200f
SYMBOL cktsym\\isource -368 480 R0
WINDOW 123 0 0 Left 2
WINDOW 39 0 0 Left 2
SYMATTR Value 10µ
SYMATTR InstName I1
TEXT -64 608 Left 2 !.tran 0 .3m 0 10n
TEXT 24 32 Left 2 !.include engr3426.sub
TEXT -264 72 Left 2 !.param m1l=4u
TEXT -264 96 Left 2 !.param m1w=32u
