Version 4
SHEET 1 880 832
WIRE -800 -592 -800 -672
WIRE -688 -592 -688 -672
WIRE -576 -592 -576 -672
WIRE -464 -592 -464 -672
WIRE -800 -464 -800 -512
WIRE -688 -464 -688 -512
WIRE -576 -464 -576 -512
WIRE -464 -464 -464 -512
WIRE -800 -272 -800 -352
WIRE -400 -272 -400 -352
WIRE -800 -144 -800 -192
WIRE -400 -144 -400 -192
WIRE -400 208 -432 208
WIRE -400 240 -432 240
FLAG -800 -144 0
FLAG -800 -352 Vin
FLAG -400 -144 0
FLAG -400 -352 Vth
FLAG -800 -464 0
FLAG -800 -672 Vdd
FLAG -688 -464 0
FLAG -688 -672 VddD
FLAG -576 -464 0
FLAG -576 -672 Vpw1
FLAG -464 -464 0
FLAG -464 -672 Vpw2
FLAG -720 160 Vth
FLAG -720 128 Vin
FLAG -720 192 0
FLAG -576 368 0
FLAG -624 80 Vdd
FLAG -528 80 VddD
FLAG -720 256 Bias
FLAG -720 224 Casc
FLAG -720 320 Vpw2
FLAG -720 288 Vpw1
SYMBOL voltage -800 -288 R0
WINDOW 123 0 0 Left 2
WINDOW 39 0 0 Left 2
SYMATTR InstName V1
SYMATTR Value PULSE(1.2 1.6 1n 2u 2u 1n 4u 1)
SYMBOL voltage -400 -288 R0
WINDOW 123 0 0 Left 2
WINDOW 39 0 0 Left 2
SYMATTR InstName V2
SYMATTR Value 1.5
SYMBOL voltage -800 -608 R0
WINDOW 123 0 0 Left 2
WINDOW 39 0 0 Left 2
SYMATTR InstName V3
SYMATTR Value 3
SYMBOL voltage -688 -608 R0
WINDOW 123 0 0 Left 2
WINDOW 39 0 0 Left 2
SYMATTR InstName V4
SYMATTR Value 1.2
SYMBOL voltage -576 -608 R0
WINDOW 123 0 0 Left 2
WINDOW 39 0 0 Left 2
SYMATTR InstName V5
SYMATTR Value 0.7
SYMBOL voltage -464 -608 R0
WINDOW 123 0 0 Left 2
WINDOW 39 0 0 Left 2
SYMATTR InstName V6
SYMATTR Value 0.5
SYMBOL comparator -576 224 R0
SYMATTR InstName X1
TEXT -256 -608 Left 2 !.include engr3426.sub
TEXT -256 -648 Left 2 !.tran 20u
