Version 4
SHEET 1 1276 680
WIRE 1024 -96 736 -96
WIRE 1200 -96 1152 -96
WIRE 64 64 48 64
WIRE 528 64 512 64
WIRE 64 112 -32 112
WIRE 224 112 192 112
WIRE 288 112 224 112
WIRE 464 112 416 112
WIRE 528 112 464 112
WIRE 720 112 656 112
WIRE 736 112 736 -96
WIRE 736 112 720 112
WIRE 784 112 736 112
WIRE 960 112 912 112
WIRE 1024 112 960 112
WIRE 1200 112 1152 112
WIRE 64 160 48 160
WIRE 528 160 512 160
WIRE 416 240 400 240
WIRE 912 240 896 240
WIRE 224 288 224 112
WIRE 272 288 224 288
WIRE 464 288 464 112
WIRE 464 288 400 288
WIRE 720 288 720 112
WIRE 768 288 720 288
WIRE 960 288 960 112
WIRE 960 288 896 288
WIRE 416 336 400 336
WIRE 912 336 896 336
WIRE -48 368 -96 368
FLAG 352 64 V+
FLAG 336 240 V+
FLAG 128 64 V+
FLAG 128 160 V-
FLAG 352 160 V-
FLAG 336 336 V-
FLAG 48 64 CB
FLAG 48 160 C
FLAG 416 240 C
FLAG 416 336 CB
FLAG 592 64 V+
FLAG 592 160 V-
FLAG 512 64 C
FLAG 512 160 CB
FLAG 848 64 V+
FLAG 832 240 V+
FLAG 848 160 V-
FLAG 832 336 V-
FLAG 912 240 CB
FLAG 912 336 C
FLAG 1088 64 V+
FLAG 1088 160 V-
FLAG 1088 -144 V+
FLAG 1088 -48 V-
FLAG 1200 -96 Q
FLAG 1200 112 QB
FLAG -32 112 D
FLAG -160 320 V+
FLAG -160 416 V-
FLAG -48 368 CB
FLAG -224 368 C
SYMBOL InverterInputs 128 112 R0
SYMATTR InstName X1
SYMBOL InverterInputs 336 288 M0
SYMATTR InstName X2
SYMBOL Inverter 352 112 R0
SYMATTR InstName X3
SYMBOL InverterInputs 592 112 R0
SYMATTR InstName X4
SYMBOL InverterInputs 832 288 M0
SYMATTR InstName X5
SYMBOL Inverter 848 112 R0
SYMATTR InstName X6
SYMBOL Inverter 1088 112 R0
SYMATTR InstName X7
SYMBOL Inverter 1088 -96 R0
SYMATTR InstName X8
SYMBOL Inverter -160 368 R0
SYMATTR InstName X9
