Version 4
SHEET 1 880 680
WIRE -288 80 -288 48
WIRE -160 80 -160 48
WIRE -32 80 -32 48
WIRE 192 80 192 48
WIRE 128 112 96 112
WIRE 288 112 256 112
WIRE 128 176 96 176
WIRE 288 176 256 176
WIRE -288 240 -288 208
WIRE -160 240 -160 208
WIRE -32 240 -32 208
WIRE 192 240 192 208
WIRE 128 272 96 272
WIRE 96 384 96 352
WIRE 32 432 0 432
WIRE 224 432 160 432
WIRE 96 512 96 480
FLAG 192 240 0
FLAG -288 240 0
FLAG -288 48 Vdd
FLAG -160 240 0
FLAG -160 48 CLK
FLAG -32 240 0
FLAG -32 48 D
FLAG 192 48 Vdd
FLAG 96 176 CLK
FLAG 96 112 D
FLAG 96 512 0
FLAG 96 352 Vdd
FLAG 0 432 CLK
SYMBOL cktsym\\vsource -288 144 R0
WINDOW 123 0 0 Left 2
WINDOW 39 0 0 Left 2
SYMATTR Value .7
SYMATTR InstName V1
SYMBOL cktsym\\vsource -160 144 R0
WINDOW 3 48 16 Invisible 2
WINDOW 123 0 0 Left 2
WINDOW 39 0 0 Left 2
SYMATTR Value PULSE(0 .7 5u 1n 1n 10u 20u)
SYMATTR InstName V2
SYMBOL cktsym\\vsource -32 144 R0
WINDOW 3 48 16 Invisible 2
WINDOW 123 0 0 Left 2
WINDOW 39 0 0 Left 2
SYMATTR Value PULSE(0 .7 0.5u 1n 1n 20u 40u)
SYMATTR InstName V3
SYMBOL Inverter 96 432 R0
SYMATTR InstName X2
SYMBOL FlipFlop 160 208 R0
SYMATTR InstName X3
TEXT -192 304 Left 2 !.include engr3426.sub
TEXT -320 320 Left 2 !.tran 60u
