Version 4
SHEET 1 880 680
WIRE 208 144 176 144
WIRE 208 176 176 176
WIRE 480 176 432 176
WIRE 208 208 176 208
WIRE 48 240 48 224
WIRE 208 240 48 240
WIRE 32 272 32 224
WIRE 176 272 176 208
WIRE 176 272 32 272
FLAG 96 224 neg
FLAG 336 240 neg
FLAG 336 112 pos
FLAG 288 112 DISABLE
FLAG 64 96 pos
FLAG -32 128 Vin
FLAG -32 160 Vthresh
FLAG 480 208 RESET
FLAG 480 240 RESETB
FLAG 480 304 Vpw1
FLAG 480 336 Vpw2
FLAG 592 368 neg
FLAG 592 144 pos
FLAG 704 240 Out
FLAG 704 272 OutB
SYMBOL comparator_preamp 48 160 R0
SYMATTR InstName X1
SYMBOL comparator_gainlatch 304 176 R0
SYMATTR InstName X2
SYMBOL pulse_width_control 592 256 R0
SYMATTR InstName X3
