Version 4
SHEET 1 2676 1412
WIRE -176 -384 -208 -384
WIRE 0 -384 -48 -384
WIRE 272 -384 240 -384
WIRE 448 -384 400 -384
WIRE 272 -128 240 -128
WIRE 448 -128 400 -128
WIRE -608 432 -640 432
WIRE -608 464 -640 464
FLAG -1328 -320 0
FLAG -1328 -448 Vdd
FLAG -1328 -32 0
FLAG -1328 -160 MSB_CLK
FLAG -720 -320 0
FLAG -720 -448 CLK
FLAG -112 -336 0
FLAG -112 -432 Vdd
FLAG -208 -384 CLK
FLAG 0 -384 CLKb
FLAG -720 -32 0
FLAG -720 -160 RSTb
FLAG -224 -32 0
FLAG -224 -160 W_CLK
FLAG 336 -80 0
FLAG 336 -176 Vdd
FLAG 240 -128 W_CLK
FLAG 448 -128 W_CLKb
FLAG 336 -336 0
FLAG 336 -432 Vdd
FLAG 240 -384 RSTb
FLAG 448 -384 RST
FLAG -816 336 Vdd
FLAG -816 560 0
FLAG -992 512 RSTb
FLAG -992 384 MSB_CLK
FLAG -992 432 CLK
FLAG -992 464 CLKb
SYMBOL cktsym\\vsource -1328 -384 R0
WINDOW 123 0 0 Left 2
WINDOW 39 0 0 Left 2
SYMATTR Value {Vdd}
SYMATTR InstName V1
SYMBOL cktsym\\vsource -1328 -96 R0
WINDOW 123 0 0 Left 2
WINDOW 39 0 0 Left 2
SYMATTR Value PULSE(0 {Vdd} 1u 5n 5n 2.5u 8u 20)
SYMATTR InstName V2
SYMBOL cktsym\\vsource -720 -384 R0
WINDOW 123 0 0 Left 2
WINDOW 39 0 0 Left 2
SYMATTR Value PULSE(0 {Vdd} 0 5n 5n 1u 2u 25)
SYMATTR InstName V3
SYMBOL Inverter -112 -384 R0
SYMATTR InstName X14
SYMATTR SpiceLine nmosL=0.9u nmosW=12u pmosL=0.9u pmosW=24u
SYMBOL cktsym\\vsource -720 -96 R0
WINDOW 123 0 0 Left 2
WINDOW 39 0 0 Left 2
SYMATTR Value PULSE(0 {Vdd} 1u 5n 5n 20u 21u 2)
SYMATTR InstName V4
SYMBOL cktsym\\vsource -224 -96 R0
WINDOW 123 0 0 Left 2
WINDOW 39 0 0 Left 2
SYMATTR Value PULSE(0 {Vdd} 20.25u 5n 5n 0.5u 21u 2)
SYMATTR InstName V5
SYMBOL Inverter 336 -128 R0
SYMATTR InstName X26
SYMATTR SpiceLine nmosL=0.9u nmosW=12u pmosL=0.9u pmosW=24u
SYMBOL Inverter 336 -384 R0
SYMATTR InstName X25
SYMATTR SpiceLine nmosL=0.9u nmosW=12u pmosL=0.9u pmosW=24u
SYMBOL msb_registers -816 448 R0
SYMATTR InstName X4
TEXT -1200 32 Left 2 !.include engr3426.sub
TEXT -1200 72 Left 2 !.param Vdd=2
TEXT -1200 112 Left 2 !.tran 45u
TEXT -1336 176 Left 2 ;Concern: Need to reset output registers at start?
