Version 4
SHEET 1 2108 892
WIRE 336 -512 160 -512
WIRE 784 -512 336 -512
WIRE 944 -512 784 -512
WIRE 1056 -512 1056 -576
WIRE 1056 -512 944 -512
WIRE 1184 -512 1056 -512
WIRE 1472 -512 1184 -512
WIRE 1824 -512 1472 -512
WIRE 784 -480 784 -512
WIRE 1184 -480 1184 -512
WIRE 1088 -416 848 -416
WIRE 1280 -416 1248 -416
WIRE 784 -288 784 -352
WIRE 1184 -288 1184 -352
WIRE 1472 -288 1472 -512
WIRE 1008 -224 848 -224
WIRE 1280 -224 1248 -224
WIRE 1984 -224 1616 -224
WIRE 1088 -128 1088 -416
WIRE 1184 -128 1184 -160
WIRE 1184 -128 1088 -128
WIRE 1280 -128 1280 -224
WIRE 1312 -128 1280 -128
WIRE 160 -96 160 -512
WIRE 336 -96 336 -512
WIRE 944 -96 944 -512
WIRE 1184 -96 1184 -128
WIRE 1472 -96 1472 -160
WIRE 1824 -96 1824 -512
WIRE 656 -64 624 -64
WIRE 96 -32 32 -32
WIRE 272 -32 240 -32
WIRE 624 -32 624 -64
WIRE 880 -32 848 -32
WIRE 1280 -32 1280 -128
WIRE 1280 -32 1248 -32
WIRE 1408 -32 1376 -32
WIRE 1760 -32 1728 -32
WIRE 32 96 32 -32
WIRE 32 96 -32 96
WIRE 160 96 160 32
WIRE 240 96 240 -32
WIRE 240 96 160 96
WIRE 336 96 336 32
WIRE 336 96 240 96
WIRE 560 96 560 32
WIRE 560 96 336 96
WIRE 688 96 688 32
WIRE 784 96 784 -160
WIRE 784 96 688 96
WIRE 848 96 848 -32
WIRE 848 96 784 96
WIRE 944 96 944 32
WIRE 1008 96 1008 -224
WIRE 1008 96 944 96
WIRE 1312 96 1312 -128
WIRE 1312 96 1008 96
WIRE 1376 96 1376 -32
WIRE 1376 96 1312 96
WIRE 1472 96 1472 32
WIRE 1616 96 1616 -224
WIRE 1616 96 1472 96
WIRE 1728 96 1728 -32
WIRE 1728 96 1616 96
WIRE 1824 96 1824 32
WIRE 1984 96 1824 96
WIRE 160 160 160 96
WIRE 336 160 336 96
WIRE 560 160 560 96
WIRE 688 160 688 96
WIRE 944 160 944 96
WIRE 1472 160 1472 96
WIRE 1824 160 1824 96
WIRE 32 224 32 96
WIRE 96 224 32 224
WIRE 240 224 240 96
WIRE 272 224 240 224
WIRE 848 224 848 96
WIRE 880 224 848 224
WIRE 1376 224 1376 96
WIRE 1408 224 1376 224
WIRE 1728 224 1728 96
WIRE 1760 224 1728 224
WIRE 624 256 624 224
WIRE 656 256 624 256
WIRE 656 320 624 320
WIRE 624 352 624 320
WIRE 1472 352 1472 288
WIRE 1616 352 1616 96
WIRE 560 480 560 416
WIRE 560 480 512 480
WIRE 688 480 688 416
WIRE 784 480 784 96
WIRE 784 480 688 480
WIRE 32 544 32 224
WIRE 512 544 512 480
WIRE 560 544 560 480
WIRE 688 544 688 480
WIRE 624 640 624 608
WIRE 656 640 624 640
WIRE 32 704 32 672
WIRE 160 704 160 288
WIRE 160 704 32 704
WIRE 336 704 336 288
WIRE 336 704 160 704
WIRE 512 704 512 672
WIRE 512 704 336 704
WIRE 944 704 944 288
WIRE 944 704 512 704
WIRE 1056 704 944 704
WIRE 1184 704 1184 32
WIRE 1184 704 1056 704
WIRE 1472 704 1472 480
WIRE 1472 704 1184 704
WIRE 1616 704 1616 480
WIRE 1616 704 1472 704
WIRE 1824 704 1824 288
WIRE 1824 704 1616 704
WIRE 1056 768 1056 704
FLAG -32 96 Dout
IOPIN -32 96 In
FLAG 1680 416 Reset
IOPIN 1680 416 In
FLAG 1408 416 ResetB
IOPIN 1408 416 In
FLAG 448 608 Vpw1
IOPIN 448 608 In
FLAG 1280 -416 Vpw2
IOPIN 1280 -416 In
FLAG 1984 -224 Out
IOPIN 1984 -224 Out
FLAG 1984 96 OutB
IOPIN 1984 96 Out
FLAG 656 320 OutB
IOPIN 656 320 Out
FLAG 656 640 Out
IOPIN 656 640 Out
FLAG 656 -64 OutB
IOPIN 656 -64 Out
FLAG 656 256 Out
IOPIN 656 256 Out
FLAG 1408 -224 Reset
IOPIN 1408 -224 In
FLAG -32 608 Out
IOPIN -32 608 Out
FLAG 32 608 neg
FLAG 512 608 neg
FLAG 624 544 neg
FLAG 160 224 neg
FLAG 336 224 neg
FLAG 944 224 neg
FLAG 624 160 neg
FLAG 1472 416 neg
FLAG 1616 416 neg
FLAG 1824 224 neg
FLAG 1472 224 neg
FLAG 1184 -32 neg
FLAG 1056 768 neg
FLAG 1056 -576 pos
FLAG 160 -32 pos
FLAG 336 -32 pos
FLAG 784 -416 pos
FLAG 784 -224 pos
FLAG 944 -32 pos
FLAG 1184 -224 pos
FLAG 1184 -416 pos
FLAG 1472 -224 pos
FLAG 1472 -32 pos
FLAG 1824 -32 pos
FLAG 624 416 pos
FLAG 624 32 pos
SYMBOL cktsym\\nmos4 160 224 R0
WINDOW 3 16 29 Left 2
WINDOW 0 18 -27 Left 2
SYMATTR InstName M3
SYMATTR Value2 l={3*A} w={2*A}
SYMBOL cktsym\\pmos4 160 -32 R0
WINDOW 3 15 30 Left 2
WINDOW 0 16 -27 Left 2
SYMATTR InstName M2
SYMATTR Value2 l={6*A} w={2*A}
SYMBOL cktsym\\nmos4 336 224 R0
WINDOW 3 19 34 Left 2
WINDOW 0 16 -31 Left 2
SYMATTR InstName M5
SYMATTR Value2 l={3*A} w={2*A}
SYMBOL cktsym\\pmos4 336 -32 R0
WINDOW 3 15 32 Left 2
WINDOW 0 16 -28 Left 2
SYMATTR InstName M4
SYMATTR Value2 l={6*A} w={2*A}
SYMBOL cktsym\\nmos4 32 608 R0
WINDOW 3 15 32 Left 2
WINDOW 0 14 -28 Left 2
SYMATTR InstName M1
SYMATTR Value2 l={15*A} w={8*A}
SYMBOL cktsym\\nmos4 512 608 R0
WINDOW 3 16 26 Left 2
WINDOW 0 16 -27 Left 2
SYMATTR InstName M6
SYMATTR Value2 l={15*A} w={8*A}
SYMBOL cktsym\\pmos4 624 32 R90
WINDOW 3 16 29 Left 2
WINDOW 0 10 -29 Left 2
SYMATTR InstName MAp
SYMATTR Value2 l={6*A} w={2*A}
SYMBOL cktsym\\nmos4 624 160 R270
WINDOW 3 9 29 Left 2
WINDOW 0 15 -24 Left 2
SYMATTR Value MAn
SYMATTR InstName M8
SYMATTR Value2 l={3*A} w={2*A}
SYMBOL cktsym\\pmos4 624 416 R90
WINDOW 3 11 29 Left 2
WINDOW 0 8 -33 Left 2
SYMATTR InstName MBp
SYMATTR Value2 l={6*A} w={2*A}
SYMBOL cktsym\\nmos4 624 544 R270
WINDOW 3 11 34 Left 2
WINDOW 0 13 -29 Left 2
SYMATTR Value MBn
SYMATTR InstName M10
SYMATTR Value2 l={3*A} w={2*A}
SYMBOL cktsym\\pmos4 784 -224 R180
WINDOW 3 16 23 Left 2
WINDOW 0 16 -29 Left 2
SYMATTR InstName M8
SYMATTR Value2 l={4*A} w={3*A}
SYMBOL cktsym\\pmos4 784 -416 R180
WINDOW 3 16 32 Left 2
WINDOW 0 16 -35 Left 2
SYMATTR InstName M7
SYMATTR Value2 l={24*A} w={12*A}
SYMBOL cktsym\\nmos4 944 224 R0
WINDOW 3 16 29 Left 2
WINDOW 0 16 -28 Left 2
SYMATTR InstName M10
SYMATTR Value2 l={3*A} w={2*A}
SYMBOL cktsym\\pmos4 944 -32 R0
WINDOW 3 11 33 Left 2
WINDOW 0 14 -25 Left 2
SYMATTR InstName M9
SYMATTR Value2 l={6*A} w={2*A}
SYMBOL cktsym\\nmos4 1184 -32 R180
WINDOW 3 17 30 Left 2
WINDOW 0 17 -30 Left 2
SYMATTR InstName M13
SYMATTR Value2 l={6*A} w={3*A}
SYMBOL cktsym\\pmos4 1184 -224 R180
WINDOW 3 18 32 Left 2
WINDOW 0 16 -32 Left 2
SYMATTR InstName M12
SYMATTR Value2 l={12*A} w={3*A}
SYMBOL cktsym\\pmos4 1184 -416 R180
WINDOW 3 17 32 Left 2
WINDOW 0 18 -30 Left 2
SYMATTR InstName M11
SYMATTR Value2 l={16*A} w={6*A}
SYMBOL cktsym\\nmos4 1472 224 R0
WINDOW 3 16 32 Left 2
WINDOW 0 16 -32 Left 2
SYMATTR InstName M16
SYMATTR Value2 l={3*A} w={2*A}
SYMBOL cktsym\\pmos4 1472 -32 R0
WINDOW 3 16 32 Left 2
WINDOW 0 16 -32 Left 2
SYMATTR InstName M15
SYMATTR Value2 l={6*A} w={2*A}
SYMBOL cktsym\\pmos4 1472 -224 R0
WINDOW 3 16 33 Left 2
WINDOW 0 16 -27 Left 2
SYMATTR InstName M14
SYMATTR Value2 l={6*A} w={2*A}
SYMBOL cktsym\\nmos4 1824 224 R0
WINDOW 3 14 31 Left 2
WINDOW 0 14 -31 Left 2
SYMATTR InstName M20
SYMATTR Value2 l={3*A} w={2*A}
SYMBOL cktsym\\pmos4 1824 -32 R0
WINDOW 3 21 32 Left 2
WINDOW 0 16 -29 Left 2
SYMATTR InstName M19
SYMATTR Value2 l={6*A} w={2*A}
SYMBOL cktsym\\nmos4 1472 416 R0
WINDOW 3 16 30 Left 2
WINDOW 0 15 -28 Left 2
SYMATTR InstName M17
SYMATTR Value2 l={3*A} w={2*A}
SYMBOL cktsym\\nmos4 1616 416 R180
WINDOW 3 19 29 Left 2
WINDOW 0 18 -33 Left 2
SYMATTR InstName M18
SYMATTR Value2 l={3*A} w={2*A}
TEXT -112 -576 Left 2 !.param A=0.2u
