Version 4
SHEET 1 2108 892
WIRE -1888 -512 -2064 -512
WIRE -1440 -512 -1888 -512
WIRE -1280 -512 -1440 -512
WIRE -1168 -512 -1168 -576
WIRE -1168 -512 -1280 -512
WIRE -1040 -512 -1168 -512
WIRE -752 -512 -1040 -512
WIRE -400 -512 -752 -512
WIRE -1440 -480 -1440 -512
WIRE -1040 -480 -1040 -512
WIRE -1344 -416 -1376 -416
WIRE -1136 -416 -1344 -416
WIRE -944 -416 -976 -416
WIRE -1440 -288 -1440 -352
WIRE -1040 -288 -1040 -352
WIRE -752 -288 -752 -512
WIRE -1216 -224 -1376 -224
WIRE -944 -224 -976 -224
WIRE -240 -224 -608 -224
WIRE -1136 -128 -1136 -416
WIRE -1040 -128 -1040 -160
WIRE -1040 -128 -1136 -128
WIRE -944 -128 -944 -224
WIRE -912 -128 -944 -128
WIRE -2064 -96 -2064 -512
WIRE -1888 -96 -1888 -512
WIRE -1280 -96 -1280 -512
WIRE -1040 -96 -1040 -128
WIRE -752 -96 -752 -160
WIRE -400 -96 -400 -512
WIRE -1568 -64 -1600 -64
WIRE -2128 -32 -2192 -32
WIRE -1952 -32 -1984 -32
WIRE -1600 -32 -1600 -64
WIRE -1344 -32 -1376 -32
WIRE -944 -32 -944 -128
WIRE -944 -32 -976 -32
WIRE -816 -32 -848 -32
WIRE -464 -32 -496 -32
WIRE -2192 96 -2192 -32
WIRE -2192 96 -2256 96
WIRE -2064 96 -2064 32
WIRE -1984 96 -1984 -32
WIRE -1984 96 -2064 96
WIRE -1888 96 -1888 32
WIRE -1664 96 -1664 32
WIRE -1664 96 -1888 96
WIRE -1536 96 -1536 32
WIRE -1440 96 -1440 -160
WIRE -1440 96 -1536 96
WIRE -1376 96 -1376 -32
WIRE -1376 96 -1440 96
WIRE -1280 96 -1280 32
WIRE -1216 96 -1216 -224
WIRE -1216 96 -1280 96
WIRE -912 96 -912 -128
WIRE -912 96 -1216 96
WIRE -848 96 -848 -32
WIRE -848 96 -912 96
WIRE -752 96 -752 32
WIRE -608 96 -608 -224
WIRE -608 96 -752 96
WIRE -496 96 -496 -32
WIRE -496 96 -608 96
WIRE -400 96 -400 32
WIRE -240 96 -400 96
WIRE -2064 160 -2064 96
WIRE -1888 160 -1888 96
WIRE -1664 160 -1664 96
WIRE -1536 160 -1536 96
WIRE -1280 160 -1280 96
WIRE -752 160 -752 96
WIRE -400 160 -400 96
WIRE -2192 224 -2192 96
WIRE -2128 224 -2192 224
WIRE -1984 224 -1984 96
WIRE -1952 224 -1984 224
WIRE -1376 224 -1376 96
WIRE -1344 224 -1376 224
WIRE -848 224 -848 96
WIRE -816 224 -848 224
WIRE -496 224 -496 96
WIRE -464 224 -496 224
WIRE -1600 256 -1600 224
WIRE -1568 256 -1600 256
WIRE -1568 320 -1600 320
WIRE -1600 352 -1600 320
WIRE -752 352 -752 288
WIRE -608 352 -608 96
WIRE -1664 480 -1664 416
WIRE -1664 480 -1712 480
WIRE -1536 480 -1536 416
WIRE -1440 480 -1440 96
WIRE -1440 480 -1536 480
WIRE -2192 544 -2192 224
WIRE -1712 544 -1712 480
WIRE -1664 544 -1664 480
WIRE -1536 544 -1536 480
WIRE -1600 640 -1600 608
WIRE -1568 640 -1600 640
WIRE -2192 704 -2192 672
WIRE -2064 704 -2064 288
WIRE -2064 704 -2192 704
WIRE -1888 704 -1888 288
WIRE -1888 704 -2064 704
WIRE -1712 704 -1712 672
WIRE -1712 704 -1888 704
WIRE -1280 704 -1280 288
WIRE -1280 704 -1712 704
WIRE -1168 704 -1280 704
WIRE -1040 704 -1040 32
WIRE -1040 704 -1168 704
WIRE -752 704 -752 480
WIRE -752 704 -1040 704
WIRE -608 704 -608 480
WIRE -608 704 -752 704
WIRE -400 704 -400 288
WIRE -400 704 -608 704
WIRE -1168 768 -1168 704
FLAG -944 -416 Vpw2
IOPIN -944 -416 In
FLAG -2192 608 neg
FLAG -1712 608 neg
FLAG -1600 544 neg
FLAG -2064 224 neg
FLAG -1888 224 neg
FLAG -1280 224 neg
FLAG -1600 160 neg
FLAG -752 416 neg
FLAG -608 416 neg
FLAG -400 224 neg
FLAG -752 224 neg
FLAG -1040 -32 neg
FLAG -1168 -576 pos
FLAG -2064 -32 pos
FLAG -1888 -32 pos
FLAG -1440 -416 pos
FLAG -1440 -224 pos
FLAG -1280 -32 pos
FLAG -1040 -224 pos
FLAG -1040 -416 pos
FLAG -752 -224 pos
FLAG -752 -32 pos
FLAG -400 -32 pos
FLAG -1600 416 pos
FLAG -1600 32 pos
FLAG -2256 96 Din
IOPIN -2256 96 In
FLAG -1776 608 Vpw1
IOPIN -1776 608 In
FLAG -240 -224 Out
IOPIN -240 -224 Out
FLAG -1568 -64 Out
IOPIN -1568 -64 Out
FLAG -1568 640 Out
IOPIN -1568 640 Out
FLAG -2256 608 Out
IOPIN -2256 608 Out
FLAG -1568 256 OutB
IOPIN -1568 256 Out
FLAG -1568 320 OutB
IOPIN -1568 320 Out
FLAG -240 96 OutB
IOPIN -240 96 Out
FLAG -544 416 Reset
IOPIN -544 416 In
FLAG -816 -224 Reset
IOPIN -816 -224 In
FLAG -816 416 ResetB
IOPIN -816 416 In
FLAG -1168 768 0
FLAG -1280 96 Y
FLAG -1344 -416 H
FLAG -1376 96 X
SYMBOL cktsym\\nmos4 -2064 224 R0
WINDOW 3 16 29 Left 2
WINDOW 0 18 -27 Left 2
SYMATTR InstName M21
SYMATTR Value2 l={3*A} w={2*A}
SYMBOL cktsym\\pmos4 -2064 -32 R0
WINDOW 3 15 30 Left 2
WINDOW 0 16 -27 Left 2
SYMATTR InstName M22
SYMATTR Value2 l={6*A} w={2*A}
SYMBOL cktsym\\nmos4 -1888 224 R0
WINDOW 3 19 34 Left 2
WINDOW 0 16 -31 Left 2
SYMATTR InstName M23
SYMATTR Value2 l={3*A} w={2*A}
SYMBOL cktsym\\pmos4 -1888 -32 R0
WINDOW 3 15 32 Left 2
WINDOW 0 16 -28 Left 2
SYMATTR InstName M24
SYMATTR Value2 l={6*A} w={2*A}
SYMBOL cktsym\\nmos4 -2192 608 R0
WINDOW 3 15 32 Left 2
WINDOW 0 14 -28 Left 2
SYMATTR InstName M25
SYMATTR Value2 l={15*A} w={8*A}
SYMBOL cktsym\\nmos4 -1712 608 R0
WINDOW 3 16 26 Left 2
WINDOW 0 16 -27 Left 2
SYMATTR InstName M26
SYMATTR Value2 l={15*A} w={8*A}
SYMBOL cktsym\\pmos4 -1600 32 R90
WINDOW 3 16 29 Left 2
WINDOW 0 10 -29 Left 2
SYMATTR InstName MAp1
SYMATTR Value2 l={6*A} w={2*A}
SYMBOL cktsym\\nmos4 -1600 160 R270
WINDOW 3 9 29 Left 2
WINDOW 0 15 -24 Left 2
SYMATTR InstName MAn1
SYMATTR Value2 l={3*A} w={2*A}
SYMBOL cktsym\\pmos4 -1600 416 R90
WINDOW 3 11 29 Left 2
WINDOW 0 8 -33 Left 2
SYMATTR InstName MBp1
SYMATTR Value2 l={6*A} w={2*A}
SYMBOL cktsym\\nmos4 -1600 544 R270
WINDOW 3 11 34 Left 2
WINDOW 0 13 -29 Left 2
SYMATTR InstName MBn1
SYMATTR Value2 l={3*A} w={2*A}
SYMBOL cktsym\\pmos4 -1440 -224 R180
WINDOW 3 16 23 Left 2
WINDOW 0 16 -29 Left 2
SYMATTR InstName M27
SYMATTR Value2 l={4*A} w={3*A}
SYMBOL cktsym\\pmos4 -1440 -416 R180
WINDOW 3 16 32 Left 2
WINDOW 0 16 -35 Left 2
SYMATTR InstName M28
SYMATTR Value2 l={24*A} w={12*A}
SYMBOL cktsym\\nmos4 -1280 224 R0
WINDOW 3 16 29 Left 2
WINDOW 0 16 -28 Left 2
SYMATTR InstName M29
SYMATTR Value2 l={3*A} w={2*A}
SYMBOL cktsym\\pmos4 -1280 -32 R0
WINDOW 3 11 33 Left 2
WINDOW 0 14 -25 Left 2
SYMATTR InstName M30
SYMATTR Value2 l={6*A} w={2*A}
SYMBOL cktsym\\nmos4 -1040 -32 R180
WINDOW 3 17 30 Left 2
WINDOW 0 17 -30 Left 2
SYMATTR InstName M31
SYMATTR Value2 l={6*A} w={3*A}
SYMBOL cktsym\\pmos4 -1040 -224 R180
WINDOW 3 18 32 Left 2
WINDOW 0 16 -32 Left 2
SYMATTR InstName M32
SYMATTR Value2 l={12*A} w={3*A}
SYMBOL cktsym\\pmos4 -1040 -416 R180
WINDOW 3 17 32 Left 2
WINDOW 0 18 -30 Left 2
SYMATTR InstName M33
SYMATTR Value2 l={16*A} w={6*A}
SYMBOL cktsym\\nmos4 -752 224 R0
WINDOW 3 16 32 Left 2
WINDOW 0 16 -32 Left 2
SYMATTR InstName M34
SYMATTR Value2 l={3*A} w={2*A}
SYMBOL cktsym\\pmos4 -752 -32 R0
WINDOW 3 16 32 Left 2
WINDOW 0 16 -32 Left 2
SYMATTR InstName M35
SYMATTR Value2 l={6*A} w={2*A}
SYMBOL cktsym\\pmos4 -752 -224 R0
WINDOW 3 16 33 Left 2
WINDOW 0 16 -27 Left 2
SYMATTR InstName M36
SYMATTR Value2 l={6*A} w={2*A}
SYMBOL cktsym\\nmos4 -400 224 R0
WINDOW 3 14 31 Left 2
WINDOW 0 14 -31 Left 2
SYMATTR InstName M37
SYMATTR Value2 l={3*A} w={2*A}
SYMBOL cktsym\\pmos4 -400 -32 R0
WINDOW 3 21 32 Left 2
WINDOW 0 16 -29 Left 2
SYMATTR InstName M38
SYMATTR Value2 l={6*A} w={2*A}
SYMBOL cktsym\\nmos4 -752 416 R0
WINDOW 3 16 30 Left 2
WINDOW 0 15 -28 Left 2
SYMATTR InstName M39
SYMATTR Value2 l={3*A} w={2*A}
SYMBOL cktsym\\nmos4 -608 416 R180
WINDOW 3 19 29 Left 2
WINDOW 0 18 -33 Left 2
SYMATTR InstName M40
SYMATTR Value2 l={3*A} w={2*A}
TEXT -2056 -608 Left 2 ;Inputs: Din, Reset, ResetB, Vpw1, Vpw2, pos, neg
TEXT -2056 -568 Left 2 ;Outputs: Out, OutB
