Version 4
SHEET 1 880 680
WIRE 480 16 128 16
WIRE 128 48 128 16
WIRE 128 48 -128 48
WIRE -64 64 -64 16
WIRE 128 64 128 48
WIRE 288 64 256 64
WIRE 320 64 288 64
WIRE 496 64 448 64
WIRE 0 160 0 128
WIRE 192 160 192 128
WIRE 192 160 0 160
WIRE 64 192 64 64
WIRE 384 192 384 128
WIRE 384 192 64 192
WIRE 0 224 0 160
WIRE 192 224 192 160
WIRE 384 224 384 192
WIRE 64 288 64 192
WIRE 288 288 288 64
WIRE 288 288 256 288
WIRE 320 288 288 288
WIRE 480 288 480 16
WIRE 480 288 448 288
WIRE -64 320 -64 288
WIRE 128 336 128 288
WIRE 128 336 -128 336
WIRE 496 336 496 64
WIRE 496 336 128 336
FLAG 0 64 Vdd
FLAG 0 288 0
FLAG -64 320 0
FLAG -64 16 Vdd
FLAG 192 288 0
FLAG 192 64 Vdd
FLAG 384 288 0
FLAG 384 64 Vdd
FLAG -128 336 Iin1
FLAG -128 48 Iin2
SYMBOL cktsym\\pmos4 0 64 M270
SYMATTR InstName M1
SYMATTR Value2 l=.9u w=6u
SYMBOL cktsym\\nmos4 0 288 M90
SYMATTR InstName M2
SYMATTR Value2 l=.9u w=3u
SYMBOL cktsym\\nmos4 192 288 M90
SYMATTR InstName M3
SYMATTR Value2 l=.9u w=3u
SYMBOL cktsym\\pmos4 192 64 M270
SYMATTR InstName M4
SYMATTR Value2 l=.9u w=6u
SYMBOL cktsym\\nmos4 384 288 M90
SYMATTR InstName M5
SYMATTR Value2 l=.9u w=3u
SYMBOL cktsym\\pmos4 384 64 M270
SYMATTR InstName M6
SYMATTR Value2 l=.9u w=6u
