Version 4
SHEET 1 880 680
WIRE 304 208 304 176
WIRE 304 352 304 336
WIRE 432 352 304 352
WIRE 304 368 304 352
WIRE 304 544 304 496
FLAG 304 272 V+
FLAG 304 176 IN1
FLAG 304 544 IN2
FLAG 240 272 S
FLAG 304 432 V+
FLAG 432 352 OUT
FLAG 176 480 V-
FLAG 176 384 V+
FLAG 112 432 S
SYMBOL cktsym\\pmos4 304 272 R0
SYMATTR InstName M2
SYMATTR Value2 l=pmosL w=pmosW
SYMBOL cktsym\\pmos4 304 432 R0
SYMATTR InstName M1
SYMATTR Value2 l=pmosL w=pmosW
SYMBOL Inverter 176 432 R0
SYMATTR InstName X1
TEXT -96 -56 Left 2 !.param pmosL=1.2u
TEXT -96 -24 Left 2 !.param pmosW=2.4u
TEXT -96 16 Left 2 !.param nmosL=1.2u
TEXT -96 48 Left 2 !.param nmosW=2.4u
