Version 4
SHEET 1 2772 1476
WIRE 2464 -352 512 -352
WIRE 2000 -256 1680 -256
WIRE 1520 -240 1152 -240
WIRE 1152 -96 1152 -240
WIRE 1168 -96 1152 -96
WIRE 2304 -48 2224 -48
WIRE 2464 -48 2464 -352
WIRE 512 -32 512 -352
WIRE 736 -32 672 -32
WIRE 944 -32 896 -32
WIRE 1376 -32 1328 -32
WIRE 1616 -32 1536 -32
WIRE 1840 -32 1776 -32
WIRE 2000 -32 2000 -256
WIRE 1168 0 1168 -96
WIRE 1328 16 1328 -32
WIRE 2224 16 2224 -48
WIRE 2304 16 2272 16
WIRE 2496 16 2464 16
WIRE 512 32 416 32
WIRE 736 32 720 32
WIRE 944 32 928 32
WIRE 1120 32 1104 32
WIRE 1168 32 1120 32
WIRE 1376 32 1344 32
WIRE 1616 32 1584 32
WIRE 1840 32 1808 32
WIRE 2032 32 2000 32
WIRE 2064 32 2032 32
WIRE 64 192 -176 192
WIRE 64 224 64 192
WIRE 80 224 80 176
WIRE 416 224 416 32
WIRE 720 224 720 32
WIRE 720 224 416 224
WIRE 928 224 928 32
WIRE 928 224 720 224
WIRE 1344 224 1344 32
WIRE 1344 224 928 224
WIRE 1584 224 1584 32
WIRE 1584 224 1344 224
WIRE 1808 224 1808 32
WIRE 1808 224 1584 224
WIRE 2272 224 2272 16
WIRE 2272 224 1808 224
WIRE 32 240 16 240
WIRE 128 256 96 256
WIRE 32 272 16 272
WIRE 128 304 128 256
WIRE 288 304 288 224
WIRE 288 304 256 304
WIRE 512 304 512 64
WIRE 512 304 288 304
WIRE 736 304 736 64
WIRE 736 304 512 304
WIRE 944 304 944 64
WIRE 944 304 736 304
WIRE 1376 304 1376 64
WIRE 1376 304 944 304
WIRE 1616 304 1616 64
WIRE 1616 304 1376 304
WIRE 1840 304 1840 64
WIRE 1840 304 1616 304
WIRE 2304 304 2304 48
WIRE 2304 304 1840 304
WIRE 80 320 80 288
WIRE 672 448 672 32
WIRE 672 448 160 448
WIRE 720 448 672 448
WIRE 1120 480 1120 32
WIRE 1120 480 -16 480
WIRE 2672 480 1120 480
WIRE -176 496 -176 192
WIRE 160 496 -16 496
WIRE 128 512 -16 512
WIRE 160 528 160 496
WIRE 1776 528 1776 32
WIRE 1776 528 160 528
WIRE 2672 528 1776 528
WIRE 128 576 128 512
WIRE 2032 576 2032 32
WIRE 2032 576 128 576
WIRE 2672 576 2032 576
WIRE 2496 624 2496 16
WIRE 2496 624 160 624
WIRE 2672 624 2496 624
WIRE 896 672 896 32
WIRE 896 672 160 672
WIRE 2672 672 896 672
WIRE 1536 720 1536 32
WIRE 1536 720 160 720
WIRE 2672 720 1536 720
WIRE 2496 832 2496 624
WIRE 2496 848 2496 832
WIRE 2496 976 2496 960
WIRE 2496 1104 2496 1088
WIRE 2496 1232 2496 1216
WIRE 2496 1360 2496 1344
FLAG 192 256 Vdd
FLAG 192 352 0
FLAG 80 176 Vdd
FLAG 16 240 CO
FLAG 16 272 CLK
FLAG 80 320 0
FLAG 352 272 0
FLAG 352 176 Vdd
FLAG 560 128 RST
FLAG 592 128 0
FLAG 592 -80 Vdd
FLAG 784 128 RSTb
FLAG 816 128 0
FLAG 816 -80 Vdd
FLAG 992 128 RSTb
FLAG 1024 128 0
FLAG 1024 -80 Vdd
FLAG 1104 -32 Q
FLAG 1248 -32 Vdd
FLAG 1248 64 0
FLAG 1664 128 RSTb
FLAG 1456 -80 Vdd
FLAG 1456 128 0
FLAG 1696 128 0
FLAG 1696 -80 Vdd
FLAG 1424 128 RSTb
FLAG 1920 -80 Vdd
FLAG 1888 128 RSTb
FLAG 1920 128 0
FLAG 1600 -288 Vdd
FLAG 1600 -192 0
FLAG 1680 -224 GO?
FLAG 2144 -32 Vdd
FLAG 2144 64 0
FLAG 2064 0 GO?
FLAG 2352 112 RSTb
FLAG 2384 112 0
FLAG 2384 -96 Vdd
FLAG 2544 896 Vdd
FLAG 2448 896 0
FLAG 2544 1024 Vdd
FLAG 2448 1024 0
FLAG 2544 1152 Vdd
FLAG 2448 1152 0
FLAG 2544 1280 Vdd
FLAG 2448 1280 0
FLAG 2544 1408 Vdd
FLAG 2448 1408 0
FLAG -96 448 Vdd
FLAG -96 544 0
SYMBOL SPDTlvs 80 256 R0
SYMATTR InstName X1
SYMBOL Inverter 192 304 R0
SYMATTR InstName X2
SYMBOL Inverter 352 224 R0
SYMATTR InstName X3
SYMBOL ResetFlipFlop_High_LDS 592 32 R0
SYMATTR InstName X4
SYMBOL ResetFlipFlop_Low_LDS 816 32 R0
SYMATTR InstName X5
SYMBOL ResetFlipFlop_Low_LDS 1024 32 R0
SYMATTR InstName X6
SYMBOL nandLVS 1248 16 R0
SYMATTR InstName X7
SYMBOL ResetFlipFlop_Low_LDS 1456 32 R0
SYMATTR InstName X8
SYMBOL ResetFlipFlop_Low_LDS 1696 32 R0
SYMATTR InstName X9
SYMBOL ResetFlipFlop_Low_LDS 1920 32 R0
SYMATTR InstName X10
SYMBOL nandLVS 1600 -240 M0
SYMATTR InstName X11
SYMBOL norLVS 2144 16 R0
SYMATTR InstName X12
SYMBOL ResetFlipFlop_Low_LDS 2384 16 R0
SYMATTR InstName X13
SYMBOL Inverter 2496 896 R90
SYMATTR InstName X15
SYMBOL Inverter 2496 1024 R90
SYMATTR InstName X14
SYMBOL Inverter 2496 1152 R90
SYMATTR InstName X16
SYMBOL Inverter 2496 1280 R90
SYMATTR InstName X17
SYMBOL Inverter 2496 1408 R90
SYMATTR InstName X18
SYMBOL nand3LVS -96 496 M0
SYMATTR InstName X19
