Version 4
SHEET 1 880 680
WIRE 512 32 432 32
WIRE 80 80 -32 80
WIRE 80 112 80 80
WIRE 96 112 96 64
WIRE 432 112 432 32
WIRE 48 128 32 128
WIRE 144 144 112 144
WIRE 48 160 32 160
WIRE 144 192 144 144
WIRE 304 192 304 112
WIRE 304 192 272 192
WIRE 512 192 512 64
WIRE 512 192 304 192
WIRE 96 208 96 176
FLAG 208 144 Vdd
FLAG 208 240 0
FLAG 96 64 Vdd
FLAG 32 128 CO
FLAG 32 160 CLK
FLAG 96 208 0
FLAG -32 80 S
FLAG 368 160 0
FLAG 368 64 Vdd
FLAG 512 -32 X
FLAG 560 128 RST
FLAG 592 128 0
FLAG 592 -80 Vdd
FLAG 672 -32 Q
FLAG 672 32 Qb
SYMBOL SPDTlvs 96 144 R0
SYMATTR InstName X1
SYMBOL Inverter 208 192 R0
SYMATTR InstName X2
SYMBOL Inverter 368 112 R0
SYMATTR InstName X3
SYMBOL highResetFlipFlop 592 32 R0
SYMATTR InstName X4
