Version 4
SHEET 1 1160 704
WIRE 576 -272 576 -304
WIRE 512 -224 480 -224
WIRE 704 -224 640 -224
WIRE 576 -144 576 -176
WIRE 576 -32 576 -64
WIRE 512 16 480 16
WIRE 704 16 640 16
WIRE 576 96 576 64
WIRE 208 160 -176 160
WIRE 720 160 336 160
WIRE 272 224 272 208
WIRE -304 256 -304 240
WIRE -176 256 -176 160
WIRE -176 256 -304 256
WIRE -176 304 -176 256
WIRE -144 304 -176 304
WIRE 80 304 16 304
WIRE 304 304 240 304
WIRE 528 304 464 304
WIRE 720 304 720 160
WIRE 720 304 688 304
WIRE -144 368 -176 368
WIRE 80 368 48 368
WIRE 304 368 272 368
WIRE 528 368 496 368
WIRE -176 528 -176 368
WIRE -176 528 -320 528
WIRE 48 528 48 368
WIRE 48 528 -176 528
WIRE 272 528 272 368
WIRE 272 528 48 528
WIRE 496 528 496 368
WIRE 496 528 272 528
WIRE -144 576 -144 400
WIRE -144 576 -320 576
WIRE 80 576 80 400
WIRE 80 576 -144 576
WIRE 304 576 304 400
WIRE 304 576 80 576
WIRE 528 576 528 400
WIRE 528 576 304 576
WIRE -96 624 -96 464
WIRE -96 624 -320 624
WIRE 128 624 128 464
WIRE 128 624 -96 624
WIRE 352 624 352 464
WIRE 352 624 128 624
WIRE 576 624 576 464
WIRE 576 624 352 624
FLAG 576 -144 0
FLAG 576 -304 Vdd
FLAG 480 -224 CLK
FLAG 704 -224 CLKb
FLAG -16 -288 CLK
FLAG -16 -160 0
FLAG -144 -160 0
FLAG -64 464 0
FLAG 160 464 0
FLAG 384 464 0
FLAG 608 464 0
FLAG -144 -288 Vdd
FLAG -64 256 Vdd
FLAG 160 256 Vdd
FLAG 384 256 Vdd
FLAG 608 256 Vdd
FLAG -320 528 CLK
FLAG -320 576 CLKb
FLAG -144 64 0
FLAG -144 -64 RSTb
FLAG -320 624 RSTb
FLAG -304 112 Vdd
FLAG -304 176 Vdd
FLAG -368 176 RSTst
FLAG -16 64 0
FLAG -16 -64 RSTst
FLAG 576 96 0
FLAG 576 -64 Vdd
FLAG 480 16 RSTst
FLAG 704 16 RSTstb
FLAG 272 224 RSTstb
FLAG 272 112 RSTst
SYMBOL FlipFlop -64 368 R0
SYMATTR InstName X1
SYMATTR SpiceLine nmosL=0.9u nmosW=3u pmosL=0.9u pmosW=6u
SYMBOL FlipFlop 160 368 R0
SYMATTR InstName X2
SYMATTR SpiceLine nmosL=0.9u nmosW=3u pmosL=0.9u pmosW=6u
SYMBOL FlipFlop 384 368 R0
SYMATTR InstName X3
SYMATTR SpiceLine nmosL=0.9u nmosW=3u pmosL=0.9u pmosW=6u
SYMBOL FlipFlop 608 368 R0
SYMATTR InstName X4
SYMATTR SpiceLine nmosL=0.9u nmosW=3u pmosL=0.9u pmosW=6u
SYMBOL cktsym\\vsource -144 -224 R0
WINDOW 123 0 0 Left 2
WINDOW 39 0 0 Left 2
SYMATTR Value 2V
SYMATTR InstName V1
SYMBOL Inverter 576 -224 R0
SYMATTR InstName X5
SYMBOL cktsym\\vsource -16 -224 R0
WINDOW 3 48 12 Left 2
WINDOW 123 0 0 Left 2
WINDOW 39 0 0 Left 2
SYMATTR Value PULSE(0 2 .2u 1n 1n 1u 2u 20)
SYMATTR InstName V2
SYMBOL cktsym\\vsource -144 0 R0
WINDOW 3 48 16 Invisible 2
WINDOW 123 0 0 Left 2
WINDOW 39 0 0 Left 2
SYMATTR Value PWL(0 0 300n 0 325n 2 40u 2)
SYMATTR InstName V3
SYMBOL cktsym\\pmos4 -304 176 R0
SYMATTR InstName M1
SYMATTR Value2 l=0.9u w=3u
SYMBOL cktsym\\vsource -16 0 R0
WINDOW 3 48 16 Invisible 2
WINDOW 123 0 0 Left 2
WINDOW 39 0 0 Left 2
SYMATTR Value PWL(0 0 1.5u 0 1.55u 2 40u 2)
SYMATTR InstName V4
SYMBOL TransmissionGate 272 160 R0
SYMATTR InstName X6
SYMBOL Inverter 576 16 R0
SYMATTR InstName X7
TEXT -472 -226 Left 2 !.tran 0 40u 0 10n
TEXT -472 -264 Left 2 !.include engr3426.sub
