Version 4
SHEET 1 1316 1132
WIRE 352 -272 320 -272
WIRE 496 -272 480 -272
WIRE 704 -272 672 -272
WIRE 848 -272 832 -272
WIRE 352 -80 320 -80
WIRE 496 -80 480 -80
WIRE 128 368 -336 368
WIRE 1216 368 256 368
WIRE 192 416 192 400
WIRE 224 560 -96 560
WIRE 1312 560 992 560
WIRE 448 576 384 576
WIRE -1040 704 -1264 704
WIRE -464 704 -464 688
WIRE -336 704 -336 368
WIRE -336 704 -464 704
WIRE -336 752 -336 704
WIRE -304 752 -336 752
WIRE -128 752 -144 752
WIRE 240 752 144 752
WIRE 448 752 448 576
WIRE 448 752 400 752
WIRE 800 752 720 752
WIRE 992 752 992 560
WIRE 992 752 960 752
WIRE 1024 752 992 752
WIRE 1216 752 1216 368
WIRE 1216 752 1184 752
WIRE -96 784 -96 560
WIRE -80 784 -96 784
WIRE 144 800 144 752
WIRE 144 800 80 800
WIRE 720 800 720 752
WIRE 720 800 672 800
WIRE -304 816 -336 816
WIRE -80 816 -144 816
WIRE 240 816 208 816
WIRE 512 816 400 816
WIRE 800 816 768 816
WIRE 1024 816 992 816
WIRE -752 832 -752 688
WIRE -1264 880 -1264 704
WIRE -1232 880 -1264 880
WIRE -1216 880 -1232 880
WIRE -1040 880 -1104 880
WIRE -464 976 -464 848
WIRE -336 976 -336 816
WIRE -336 976 -464 976
WIRE 208 976 208 816
WIRE 208 976 -336 976
WIRE 768 976 768 816
WIRE 768 976 208 976
WIRE 992 976 992 816
WIRE 992 976 768 976
WIRE -592 1024 -592 848
WIRE -304 1024 -304 848
WIRE -304 1024 -592 1024
WIRE 240 1024 240 848
WIRE 240 1024 -304 1024
WIRE 800 1024 800 848
WIRE 800 1024 240 1024
WIRE 1024 1024 1024 848
WIRE 1024 1024 800 1024
WIRE -256 1072 -256 912
WIRE -256 1072 -480 1072
WIRE 288 1072 288 912
WIRE 288 1072 -256 1072
WIRE 848 1072 848 912
WIRE 848 1072 288 1072
WIRE 1072 1072 1072 912
WIRE 1072 1072 848 1072
WIRE -1264 1120 -1264 880
WIRE 1312 1120 1312 560
WIRE 1312 1120 -1264 1120
FLAG 416 -224 0
FLAG 416 -320 Vdd
FLAG 320 -272 CLK1
FLAG 496 -272 CLK1b
FLAG -16 -288 CLK1
FLAG -16 -160 0
FLAG -144 -160 0
FLAG -224 912 0
FLAG 320 912 0
FLAG 880 912 0
FLAG 1104 912 0
FLAG -144 -288 Vdd
FLAG -224 704 Vdd
FLAG 320 704 Vdd
FLAG 880 704 Vdd
FLAG 1104 704 Vdd
FLAG -144 64 0
FLAG -144 -64 RSTb
FLAG -480 1072 RSTb
FLAG -464 560 Vdd
FLAG -464 624 Vdd
FLAG -528 624 RSTst
FLAG -16 64 0
FLAG -16 -64 RSTst
FLAG 416 -32 0
FLAG 416 -128 Vdd
FLAG 320 -80 RSTst
FLAG 496 -80 RSTstb
FLAG 192 416 RSTstb
FLAG 192 320 RSTst
FLAG 112 -288 CLK2
FLAG 112 -160 0
FLAG 768 -224 0
FLAG 768 -320 Vdd
FLAG 672 -272 CLK2
FLAG 848 -272 CLK2b
FLAG -1040 848 CLK1
FLAG -1168 928 0
FLAG -960 912 0
FLAG -816 912 0
FLAG -816 816 Vdd
FLAG -960 816 Vdd
FLAG -1168 832 Vdd
FLAG -672 896 0
FLAG -528 896 0
FLAG -672 800 Vdd
FLAG -528 800 Vdd
FLAG -1040 672 CLK2
FLAG -960 736 0
FLAG -816 736 0
FLAG -816 640 Vdd
FLAG -960 640 Vdd
FLAG -144 288 0
FLAG -144 160 FB?
FLAG 384 544 FB?
FLAG 0 848 0
FLAG 304 512 0
FLAG 0 752 Vdd
FLAG 304 608 Vdd
FLAG 512 784 FB?
FLAG 592 848 0
FLAG 592 752 Vdd
SYMBOL FlipFlop -224 816 R0
SYMATTR InstName X1
SYMATTR SpiceLine nmosL=0.9u nmosW=3u pmosL=0.9u pmosW=6u
SYMBOL FlipFlop 320 816 R0
SYMATTR InstName X2
SYMATTR SpiceLine nmosL=0.9u nmosW=3u pmosL=0.9u pmosW=6u
SYMBOL FlipFlop 880 816 R0
SYMATTR InstName X3
SYMATTR SpiceLine nmosL=0.9u nmosW=3u pmosL=0.9u pmosW=6u
SYMBOL FlipFlop 1104 816 R0
SYMATTR InstName X4
SYMATTR SpiceLine nmosL=0.9u nmosW=3u pmosL=0.9u pmosW=6u
SYMBOL cktsym\\vsource -144 -224 R0
WINDOW 123 0 0 Left 2
WINDOW 39 0 0 Left 2
SYMATTR Value 2V
SYMATTR InstName V1
SYMBOL Inverter 416 -272 R0
SYMATTR InstName X5
SYMATTR SpiceLine nmosL=0.9u nmosW=3u pmosL=0.9u pmosW=6u
SYMBOL cktsym\\vsource -16 -224 R0
WINDOW 3 48 12 Invisible 2
WINDOW 123 0 0 Left 2
WINDOW 39 0 0 Left 2
SYMATTR Value PULSE(0 2 .2u 1n 1n 1u 2u 20)
SYMATTR InstName V2
SYMBOL cktsym\\vsource -144 0 R0
WINDOW 3 48 16 Invisible 2
WINDOW 123 0 0 Left 2
WINDOW 39 0 0 Left 2
SYMATTR Value PWL(0 0 300n 0 325n 2 40u 2)
SYMATTR InstName V3
SYMBOL cktsym\\pmos4 -464 624 R0
SYMATTR InstName M1
SYMATTR Value2 l=0.9u w=6u
SYMBOL cktsym\\vsource -16 0 R0
WINDOW 3 48 16 Invisible 2
WINDOW 123 0 0 Left 2
WINDOW 39 0 0 Left 2
SYMATTR Value PWL(0 0 1.5u 0 1.55u 2 40u 2)
SYMATTR InstName V4
SYMBOL TransmissionGate 192 368 R0
SYMATTR InstName X6
SYMBOL Inverter 416 -80 R0
SYMATTR InstName X7
SYMATTR SpiceLine nmosL=0.9u nmosW=3u pmosL=0.9u pmosW=6u
SYMBOL cktsym\\vsource 112 -224 R0
WINDOW 3 48 12 Invisible 2
WINDOW 123 0 0 Left 2
WINDOW 39 0 0 Left 2
SYMATTR Value PULSE(0 2 .2u 1n 1n 2u 4u 12)
SYMATTR InstName V5
SYMBOL Inverter 768 -272 R0
SYMATTR InstName X8
SYMATTR SpiceLine nmosL=0.9u nmosW=3u pmosL=0.9u pmosW=6u
SYMBOL NAND -960 864 R0
SYMATTR InstName X9
SYMATTR SpiceLine nmosL=0.9u nmosW=3u pmosL=0.9u pmosW=6u
SYMBOL Inverter -816 864 R0
SYMATTR InstName X10
SYMATTR SpiceLine nmosL=0.9u nmosW=3u pmosL=0.9u pmosW=6u
SYMBOL Inverter -1168 880 R0
SYMATTR InstName X11
SYMATTR SpiceLine nmosL=0.9u nmosW=3u pmosL=0.9u pmosW=6u
SYMBOL NOR -672 848 R0
SYMATTR InstName X12
SYMATTR SpiceLine nmosL=0.9u nmosW=3u pmosL=0.9u pmosW=6u
SYMBOL Inverter -528 848 R0
SYMATTR InstName X13
SYMATTR SpiceLine nmosL=0.9u nmosW=3u pmosL=0.9u pmosW=6u
SYMBOL NAND -960 688 R0
SYMATTR InstName X14
SYMATTR SpiceLine nmosL=0.9u nmosW=3u pmosL=0.9u pmosW=6u
SYMBOL Inverter -816 688 R0
SYMATTR InstName X15
SYMATTR SpiceLine nmosL=0.9u nmosW=3u pmosL=0.9u pmosW=6u
SYMBOL cktsym\\vsource -144 224 R0
WINDOW 3 48 16 Invisible 2
WINDOW 123 0 0 Left 2
WINDOW 39 0 0 Left 2
SYMATTR Value PWL(0 2 15u 2 15.05u 0 40u 0)
SYMATTR InstName V6
SYMBOL NAND 0 800 R0
SYMATTR InstName X16
SYMATTR SpiceLine nmosL=0.9u nmosW=3u pmosL=0.9u pmosW=6u
SYMBOL NAND 304 560 R180
SYMATTR InstName X17
SYMATTR SpiceLine nmosL=0.9u nmosW=3u pmosL=0.9u pmosW=6u
SYMBOL NOR 592 800 R0
SYMATTR InstName X18
SYMATTR SpiceLine nmosL=0.9u nmosW=3u pmosL=0.9u pmosW=6u
TEXT -472 -226 Left 2 !.tran 0 40u 0 10n
TEXT -472 -264 Left 2 !.include engr3426.sub
