* Z:\home\awhitcombe\VLSI\Project\ultra-efficient-adc\FlipFlop_LDSHalf.asc
M7 N001 CLKb N005 neg nfet l=nmosL w=nmosW
M8 N005 N002 neg neg nfet l=nmosL w=nmosW
M9 N001 CLK N003 pos pfet l=pmosL w=pmosW
M10 N003 N002 pos pos pfet l=pmosL w=pmosW
M15 N004 N001 neg neg nfet l=nmosL w=nmosW
M16 N004 N001 pos pos pfet l=pmosL w=pmosW
M17 pos N004 N006 pos pfet l=pmosL w=pmosW
M18 N006 CLKb N001 pos pfet l=pmosL w=pmosW
M19 N007 CLK N001 neg nfet l=nmosL w=nmosW
M20 neg N004 N007 neg nfet l=nmosL w=nmosW
M21 Qb N004 neg neg nfet l=nmosL w=nmosW
M22 Qb N004 pos pos pfet l=pmosL w=pmosW
M23 Q N001 neg neg nfet l=nmosL w=nmosW
M24 Q N001 pos pos pfet l=pmosL w=pmosW
M1 N001 RESETb pos pos pfet l=0.9u w=12.6u
M2 N001 RESETb pos pos pfet l=0.9u w=7.8u
M3 N001 RESETb pos pos pfet l=0.9u w=7.8u
M4 N001 RESETb pos pos pfet l=0.9u w=7.8u
.param nmosL=0.9u
.param pmosL=0.9u
.param nmosW=3u
.param pmosW=6u
.backanno
.end

