Version 4
SHEET 1 2676 1412
WIRE -1584 336 -1616 336
WIRE -1424 336 -1424 80
WIRE -1360 336 -1392 336
WIRE -1200 336 -1200 80
WIRE -1584 400 -1600 400
WIRE -1360 400 -1376 400
WIRE -1536 576 -1536 496
WIRE -1536 576 -2000 576
WIRE -1312 576 -1312 496
WIRE -1312 576 -1536 576
WIRE -1600 640 -1600 400
WIRE -1600 640 -2000 640
WIRE -1376 640 -1376 400
WIRE -1376 640 -1600 640
WIRE -1584 704 -1584 432
WIRE -1584 704 -2000 704
WIRE -1360 704 -1360 432
WIRE -1360 704 -1584 704
WIRE -1808 992 -1936 992
WIRE -1616 992 -1616 336
WIRE -1616 992 -1648 992
WIRE -1552 992 -1584 992
WIRE -1392 992 -1392 336
WIRE -1616 1056 -1616 992
WIRE -1552 1056 -1616 1056
WIRE -1648 1088 -1648 1056
WIRE -1552 1088 -1648 1088
WIRE -1760 1232 -1760 1152
WIRE -1760 1232 -2000 1232
WIRE -1504 1232 -1504 1152
WIRE -1504 1232 -1760 1232
WIRE -1936 1328 -1936 992
WIRE -1936 1328 -2000 1328
WIRE -1584 1328 -1584 992
WIRE -1584 1328 -1936 1328
FLAG -2000 1328 MSB_CLK
FLAG -1808 1056 SYS_CLK
FLAG -1808 1088 SYS_CLKb
FLAG -2000 576 RST_ORb
FLAG -1200 80 Bit0
FLAG -1424 80 Bit1
FLAG -1504 288 pos
FLAG -1280 288 pos
FLAG -1728 944 pos
FLAG -1472 944 pos
FLAG -1504 496 neg
FLAG -1280 496 neg
FLAG -1728 1152 neg
FLAG -1472 1152 neg
FLAG -2000 640 W_CLK
FLAG -2000 704 W_CLKb
FLAG -2000 1232 RST_IRb
SYMBOL ToggleFlipFlop_Low_LDS_SYMBOL -1760 1088 R0
SYMATTR InstName X1
SYMBOL ToggleFlipFlop_Low_LDS_SYMBOL -1504 1088 R0
SYMATTR InstName X2
SYMBOL ResetFlipFlop_Low_LDS -1504 400 R0
SYMATTR InstName X3
SYMBOL ResetFlipFlop_Low_LDS -1280 400 R0
SYMATTR InstName X4
TEXT -1520 208 Left 2 ;Bit1
TEXT -1304 208 Left 2 ;Bit0
