Version 4
SHEET 1 940 1396
WIRE -240 -448 -240 -592
WIRE 528 -272 512 -272
WIRE 512 -256 512 -272
WIRE 656 -192 656 -208
WIRE 656 -192 448 -192
WIRE 736 -176 736 -208
WIRE 752 -176 736 -176
WIRE 784 -176 784 -208
WIRE 784 -176 752 -176
WIRE 816 -160 816 -208
WIRE 832 -160 816 -160
WIRE -96 -128 -96 -144
WIRE -96 -128 -112 -128
WIRE -16 -128 -16 -144
WIRE 16 -128 -16 -128
WIRE 32 -128 32 -144
WIRE -64 -112 -64 -144
WIRE -16 -112 -64 -112
WIRE -176 -96 -176 -144
WIRE 752 -96 752 -176
WIRE -224 -80 -224 -144
WIRE -80 -80 -224 -80
WIRE 624 -48 624 -208
WIRE 656 -48 624 -48
WIRE 512 16 512 -256
WIRE 544 16 512 16
WIRE 656 16 656 -48
WIRE 688 16 688 -208
WIRE 752 16 752 -96
WIRE 448 160 448 -192
WIRE 480 160 448 160
WIRE 848 160 848 -208
WIRE 848 160 816 160
WIRE 832 192 832 -160
WIRE 832 192 816 192
WIRE -96 288 -752 288
WIRE -224 320 -752 320
WIRE -96 320 -96 288
WIRE 912 336 816 336
WIRE 912 368 816 368
WIRE 912 400 816 400
WIRE 912 432 816 432
WIRE -272 448 -736 448
WIRE 912 464 816 464
WIRE 912 496 816 496
WIRE 912 528 816 528
WIRE 912 560 816 560
WIRE -272 576 -272 448
WIRE -272 576 -304 576
WIRE 912 592 816 592
WIRE 912 624 816 624
WIRE -560 640 -736 640
WIRE -336 1120 -336 976
FLAG -752 288 Iref
IOPIN -752 288 In
FLAG -752 320 Iin
IOPIN -752 320 In
FLAG -336 1120 PosA
IOPIN -336 1120 In
FLAG -736 448 Vpw1
IOPIN -736 448 In
FLAG -736 640 Vpw2
IOPIN -736 640 In
FLAG 752 -96 pos
FLAG 816 256 pos
FLAG 640 800 pos
FLAG 640 896 neg
FLAG 512 -256 neg
SYMBOL LVS_LSB_registers 624 192 R90
SYMATTR InstName X1
SYMBOL LVS_MSB_registers 720 -384 M270
SYMATTR InstName X2
SYMBOL LVS_Comparator -560 976 M270
SYMATTR InstName X5
SYMBOL LVS_StateMachine -176 -336 R0
SYMATTR InstName X3
SYMBOL LVS_AnalogSwitchNetwork 176 768 M0
SYMATTR InstName X4
SYMBOL Inverter 640 848 R180
SYMATTR InstName X6
