Version 4
SHEET 1 940 1396
WIRE 528 -272 512 -272
WIRE 592 -192 592 -208
WIRE 592 -192 352 -192
WIRE 816 -192 816 -208
WIRE 864 -192 816 -192
WIRE 512 -176 512 -272
WIRE 544 -176 512 -176
WIRE 736 -176 736 -208
WIRE 784 -176 784 -208
WIRE 784 -176 736 -176
WIRE 656 -160 656 -208
WIRE 656 -160 432 -160
WIRE -288 -144 -288 -288
WIRE 864 -144 864 -192
WIRE 864 -144 256 -144
WIRE 736 -96 736 -176
WIRE 608 0 368 0
WIRE 544 16 544 -176
WIRE 608 16 608 0
WIRE 624 16 624 -208
WIRE 656 16 624 16
WIRE 688 16 688 -208
WIRE 736 16 736 -96
WIRE 752 16 736 16
WIRE 256 160 64 160
WIRE 432 160 432 -160
WIRE 480 160 432 160
WIRE 848 160 848 -208
WIRE 848 160 816 160
WIRE -144 176 -144 160
WIRE -144 176 -160 176
WIRE -64 176 -64 160
WIRE -32 176 -64 176
WIRE -16 176 -16 160
WIRE 368 176 368 0
WIRE -112 192 -112 160
WIRE -64 192 -112 192
WIRE 480 192 400 192
WIRE 864 192 864 -144
WIRE 864 192 816 192
WIRE -224 208 -224 160
WIRE 352 208 352 -192
WIRE -272 224 -272 160
WIRE -128 224 -272 224
WIRE 832 256 816 256
WIRE -96 288 -752 288
WIRE -224 320 -752 320
WIRE -96 320 -96 288
WIRE 912 336 816 336
WIRE 912 368 816 368
WIRE 912 400 816 400
WIRE 912 432 816 432
WIRE -272 448 -736 448
WIRE 912 464 816 464
WIRE 912 496 816 496
WIRE 912 528 816 528
WIRE 912 560 816 560
WIRE -272 576 -272 448
WIRE -272 576 -304 576
WIRE 912 592 816 592
WIRE 912 624 816 624
WIRE -560 640 -736 640
WIRE -336 1120 -336 976
FLAG 736 -96 pos
FLAG 832 256 pos
FLAG -752 288 Iref
IOPIN -752 288 In
FLAG -752 320 Iin
IOPIN -752 320 In
FLAG -336 1120 PosA
IOPIN -336 1120 In
FLAG -736 448 Vpw1
IOPIN -736 448 In
FLAG -736 640 Vpw2
IOPIN -736 640 In
SYMBOL LVS_LSB_registers 624 192 R90
SYMATTR InstName X1
SYMBOL LVS_MSB_registers 720 -384 M270
SYMATTR InstName X2
SYMBOL LVS_Comparator -560 976 M270
SYMATTR InstName X5
SYMBOL LVS_StateMachine -224 -32 R0
SYMATTR InstName X3
SYMBOL LVS_AnalogSwitchNetwork 176 768 M0
SYMATTR InstName X4
