Version 4
SHEET 1 880 680
WIRE 208 304 96 304
WIRE 304 304 208 304
WIRE 96 320 96 304
WIRE 304 320 304 304
WIRE 32 464 -16 464
WIRE 96 464 96 448
WIRE 96 464 32 464
WIRE 304 464 304 448
WIRE 384 464 304 464
WIRE 448 464 384 464
WIRE 384 480 384 464
FLAG 96 384 pos
FLAG 304 384 pos
FLAG 208 240 pos
FLAG 208 112 pos
FLAG 208 48 pos
FLAG 32 384 Input
FLAG 368 384 Thresh
FLAG 144 240 Cascode
FLAG 144 112 Bias
FLAG 448 464 Vp
FLAG -16 464 Vm
FLAG 384 544 neg
FLAG 304 544 neg
FLAG 96 544 neg
FLAG 32 528 neg
SYMBOL cktsym\\pmos4 208 112 R0
SYMATTR InstName M1
SYMATTR Value2 l=4u w=16u
SYMBOL cktsym\\pmos4 208 240 R0
SYMATTR InstName M2
SYMATTR Value2 l=.8u w=3.2u
SYMBOL cktsym\\pmos4 96 384 R0
SYMATTR InstName M3
SYMATTR Value2 l=1u w=3u
SYMBOL cktsym\\pmos4 304 384 M0
SYMATTR InstName M4
SYMATTR Value2 l=1u w=3u
SYMBOL res 80 448 R0
SYMATTR InstName R1
SYMATTR Value 300k
SYMBOL res 288 448 R0
SYMATTR InstName R2
SYMATTR Value 300k
SYMBOL cap 368 480 R0
SYMATTR InstName C2
SYMATTR Value 200f
SYMBOL cap 16 464 R0
SYMATTR InstName C1
SYMATTR Value 200f
