Version 4
SHEET 1 880 680
WIRE 224 144 192 144
WIRE 224 176 192 176
WIRE 496 176 448 176
WIRE 224 208 176 208
WIRE 48 240 48 224
WIRE 176 240 176 208
WIRE 176 240 48 240
WIRE 64 256 64 224
WIRE 208 256 64 256
WIRE 224 256 224 240
WIRE 224 256 208 256
FLAG 112 224 0
FLAG 352 240 0
FLAG 80 96 Vdd
FLAG 352 112 Vdd
FLAG 496 176 Dout
FLAG -16 128 Vin
FLAG -16 176 Vthresh
FLAG 0 64 0
FLAG 0 -64 Vdd
FLAG 112 64 0
FLAG 208 64 0
FLAG 304 64 0
FLAG 112 -64 Bias
FLAG 208 256 Bias
FLAG 208 -64 Cascode
FLAG 176 208 Cascode
FLAG 304 -64 Vin
FLAG 400 64 0
FLAG 400 -64 Vthresh
FLAG 304 112 Disable
FLAG 496 64 0
FLAG 496 -64 Disable
SYMBOL comparator_preamp 64 160 R0
SYMATTR InstName X1
SYMBOL cktsym\\vsource 0 0 R0
WINDOW 123 0 0 Left 2
WINDOW 39 0 0 Left 2
SYMATTR Value 5
SYMATTR InstName V1
SYMBOL cktsym\\vsource 112 0 R0
WINDOW 123 0 0 Left 2
WINDOW 39 0 0 Left 2
SYMATTR Value 4
SYMATTR InstName V2
SYMBOL cktsym\\vsource 208 0 R0
WINDOW 123 0 0 Left 2
WINDOW 39 0 0 Left 2
SYMATTR Value 4
SYMATTR InstName V3
SYMBOL cktsym\\vsource 304 0 R0
WINDOW 123 0 0 Left 2
WINDOW 39 0 0 Left 2
SYMATTR Value 1
SYMATTR InstName V4
SYMBOL cktsym\\vsource 400 0 R0
WINDOW 123 0 0 Left 2
WINDOW 39 0 0 Left 2
SYMATTR Value 3
SYMATTR InstName V5
SYMBOL cktsym\\vsource 496 0 R0
WINDOW 123 0 0 Left 2
WINDOW 39 0 0 Left 2
SYMATTR Value 0
SYMATTR InstName V6
SYMBOL comparator_gainlatch 320 176 R0
SYMATTR InstName X2
TEXT -192 -88 Left 2 !.include engr3426.sub
TEXT -194 -62 Left 2 !.tran 0 10m 0 10n
